<routes>
<route id="0_0_0" edges="
22716072#4 26642362#4 128906555 -25187891 -25145014#1 -25145014#0 22716069#1 22716069#2 653473569#2
" />
<route id="0_0_1" edges="
22716072#4 26642362#4 128906555 233675413#0 233675413#1 22716069#0 22716069#1 22716069#2 653473569#2
" />
<route id="0_0_2" edges="
22716072#4 26642362#4 128906555 -25187891 -25145014#1 25187889 25145012#3 25145012#4 22716069#2 653473569#2
" />
<route id="1_0_0" edges="
18813598#2 18813598#7 18813598#8 653473568#0 653473568#1 653473569#0 653473569#1 653473569#2
" />
<route id="1_0_1" edges="
18813598#2 18813598#7 18813598#8 653473568#0 -28111977#10 25187895#0 25187896 25145012#4 22716069#2 653473569#2
" />
<route id="1_0_2" edges="
18813598#2 25136986 26642362#0 26642362#1 -25145014#4 -25145014#3 -25145014#2 -25145014#1 -25145014#0 22716069#1 22716069#2 653473569#2
" />
<route id="0_1_0" edges="
22716072#4 26642362#4 128906555 233675413#0 233675413#1 233675413#2
" />
<route id="0_1_1" edges="
22716072#4 26642362#4 128906555 -25187891 -25145014#1 -25145014#0 -22716069#0 233675413#2
" />
<route id="0_1_2" edges="
22716072#4 -26642362#3 -26642362#2 -25145014#4 -25145014#3 -25145014#2 -25145014#1 -25145014#0 -22716069#0 233675413#2
" />
<route id="1_1_0" edges="
18813598#2 25136986 26642362#0 28111977#6 -25187892 -25145014#3 -25145014#2 -25145014#1 -25145014#0 -22716069#0 233675413#2
" />
<route id="1_1_1" edges="
18813598#2 25136986 26642362#0 26642362#1 -25145014#4 -25145014#3 -25145014#2 -25145014#1 -25145014#0 -22716069#0 233675413#2
" />
<route id="1_1_2" edges="
18813598#2 25136986 26642362#0 26642362#1 -25145014#4 -25145014#3 -25145014#2 25187891 233675413#0 233675413#1 233675413#2
" />
</routes>
