<edges xmlns:xsi="http://www.w3.org/2001/XMLSchema-instance" version="1.16" xsi:noNamespaceSchemaLocation="http://sumo.dlr.de/xsd/edges_file.xsd">
    <location netOffset="-419004.84,-5377863.62" convBoundary="0.00,0.00,5456.73,5970.86" origBoundary="1.808007,48.518395,1.987549,48.602981" projParameter="+proj=utm +zone=31 +ellps=WGS84 +datum=WGS84 +units=m +no_defs" />

    <edge id="-100468675#0" from="1617890018" to="1161457643" priority="3" type="highway.residential" numLanes="1" speed="8.33" disallow="tram rail_urban rail rail_electric rail_fast ship" />
    <edge id="-100468675#1" from="1172949639" to="1617890018" priority="3" type="highway.residential" numLanes="1" speed="8.33" shape="2581.15,3610.34 2579.14,3619.32 2564.70,3676.11" disallow="tram rail_urban rail rail_electric rail_fast ship" />
    <edge id="-100468675#2" from="1172949655" to="1172949639" priority="3" type="highway.residential" numLanes="1" speed="8.33" shape="2592.81,3562.07 2589.66,3575.13 2581.15,3610.34" disallow="tram rail_urban rail rail_electric rail_fast ship" />
    <edge id="-100468675#3" from="534718083" to="1172949655" priority="3" type="highway.residential" numLanes="1" speed="8.33" shape="2612.43,3368.37 2611.77,3419.83 2609.47,3448.32 2602.23,3502.52 2592.81,3562.07" disallow="tram rail_urban rail rail_electric rail_fast ship" />
    <edge id="-100468681#0" from="4171544027" to="1161457663" priority="11" type="highway.secondary" numLanes="1" speed="13.89" shape="2679.74,3674.44 2615.25,3711.74 2597.14,3720.21" disallow="tram rail_urban rail rail_electric rail_fast ship">
        <param key="ref" value="D 29" />
    </edge>
    <edge id="-100468681#1" from="1333258214" to="4171544027" priority="11" type="highway.secondary" numLanes="1" speed="13.89" shape="3043.26,3379.41 3021.76,3437.92 3008.57,3462.37 2995.71,3479.48 2973.27,3498.99 2945.40,3517.22 2923.90,3529.83 2679.74,3674.44" disallow="tram rail_urban rail rail_electric rail_fast ship">
        <param key="ref" value="D 29" />
    </edge>
    <edge id="-100468681#2" from="1172966013" to="1333258214" priority="11" type="highway.secondary" numLanes="1" speed="13.89" disallow="tram rail_urban rail rail_electric rail_fast ship">
        <param key="ref" value="D 29" />
    </edge>
    <edge id="-100468681#3" from="1173079964" to="1172966013" priority="11" type="highway.secondary" numLanes="1" speed="13.89" shape="3077.88,3278.66 3076.21,3286.53 3071.05,3302.17 3059.69,3333.09" disallow="tram rail_urban rail rail_electric rail_fast ship">
        <param key="ref" value="D 29" />
    </edge>
    <edge id="-100468681#4" from="1173060683" to="1173079964" priority="11" type="highway.secondary" numLanes="1" speed="13.89" shape="3068.38,3211.31 3070.72,3219.07 3076.18,3238.82 3078.68,3253.50 3078.98,3267.37 3077.88,3278.66" disallow="tram rail_urban rail rail_electric rail_fast ship">
        <param key="ref" value="D 29" />
    </edge>
    <edge id="-100468681#5" from="4171595316" to="1173060683" priority="11" type="highway.secondary" numLanes="1" speed="13.89" shape="3047.28,3147.37 3061.58,3190.70 3068.38,3211.31" disallow="tram rail_urban rail rail_electric rail_fast ship">
        <param key="ref" value="D 29" />
    </edge>
    <edge id="-100468681#6" from="1162051812" to="4171595316" priority="11" type="highway.secondary" numLanes="1" speed="13.89" disallow="tram rail_urban rail rail_electric rail_fast ship">
        <param key="ref" value="D 29" />
    </edge>
    <edge id="-100468681#7" from="4171250157" to="1162051812" priority="11" type="highway.secondary" numLanes="1" speed="13.89" shape="3023.43,3072.17 3031.67,3097.93 3044.86,3139.24" disallow="tram rail_urban rail rail_electric rail_fast ship">
        <param key="ref" value="D 29" />
    </edge>
    <edge id="-100468681#8" from="1161457771" to="4171250157" priority="11" type="highway.secondary" numLanes="1" speed="13.89" shape="3021.86,2993.89 3017.67,3016.79 3016.42,3026.80 3016.23,3038.86 3018.10,3052.10 3020.63,3063.25 3023.43,3072.17" disallow="tram rail_urban rail rail_electric rail_fast ship">
        <param key="ref" value="D 29" />
    </edge>
    <edge id="-100488715#0" from="1161680943" to="1161680941" priority="3" type="highway.residential" numLanes="1" speed="8.33" shape="2134.23,2409.43 2069.34,2359.64 2053.44,2348.21 2029.02,2330.66 2007.25,2318.15 2003.77,2316.92 1998.51,2315.06" disallow="tram rail_urban rail rail_electric rail_fast ship" />
    <edge id="-100488715#1" from="1178045782" to="1161680943" priority="3" type="highway.residential" numLanes="1" speed="8.33" shape="2163.68,2443.16 2146.68,2422.28 2134.23,2409.43" disallow="tram rail_urban rail rail_electric rail_fast ship" />
    <edge id="-100488715#2" from="1161680870" to="1178045782" priority="3" type="highway.residential" numLanes="1" speed="8.33" shape="2263.24,2549.92 2236.85,2530.32 2224.81,2518.26 2163.68,2443.16" disallow="tram rail_urban rail rail_electric rail_fast ship" />
    <edge id="-100488715#3" from="1171084380" to="1161680870" priority="3" type="highway.residential" numLanes="1" speed="8.33" shape="2437.54,2616.93 2434.14,2614.98 2418.63,2609.08 2372.16,2598.29 2352.71,2593.43 2328.47,2587.06 2318.52,2583.25 2310.35,2578.63 2288.78,2564.53 2263.24,2549.92" disallow="tram rail_urban rail rail_electric rail_fast ship" />
    <edge id="-100488715#4" from="1161680892" to="1171084380" priority="3" type="highway.residential" numLanes="1" speed="8.33" disallow="tram rail_urban rail rail_electric rail_fast ship" />
    <edge id="-100488715#5" from="1173027927" to="1161680892" priority="3" type="highway.residential" numLanes="1" speed="8.33" disallow="tram rail_urban rail rail_electric rail_fast ship" />
    <edge id="-100488715#6" from="1173027844" to="1173027927" priority="3" type="highway.residential" numLanes="1" speed="8.33" shape="2635.80,2749.02 2518.61,2671.23 2497.90,2657.12" disallow="tram rail_urban rail rail_electric rail_fast ship" />
    <edge id="-100488715#7" from="1161680825" to="1173027844" priority="3" type="highway.residential" numLanes="1" speed="8.33" shape="2719.39,2799.55 2713.20,2792.80 2635.80,2749.02" disallow="tram rail_urban rail rail_electric rail_fast ship" />
    <edge id="-100525438#0" from="1162051794" to="1162051812" priority="3" type="highway.residential" numLanes="1" speed="8.33" shape="2939.61,3141.03 2984.15,3142.84 3019.83,3141.52 3038.40,3139.81 3041.64,3139.53 3044.86,3139.24" disallow="tram rail_urban rail rail_electric rail_fast ship" />
    <edge id="-100525438#1" from="1162051803" to="1162051794" priority="3" type="highway.residential" numLanes="1" speed="8.33" shape="2756.48,3133.34 2816.32,3132.31 2840.28,3133.56 2939.61,3141.03" disallow="tram rail_urban rail rail_electric rail_fast ship" />
    <edge id="-100525438#2" from="1162051787" to="1162051803" priority="3" type="highway.residential" numLanes="1" speed="8.33" shape="2683.44,3121.34 2710.21,3128.95 2719.42,3130.74 2756.48,3133.34" disallow="tram rail_urban rail rail_electric rail_fast ship" />
    <edge id="-100525440" from="2866251561" to="1162051805" priority="3" type="highway.residential" numLanes="1" speed="13.89" disallow="tram rail_urban rail rail_electric rail_fast ship" />
    <edge id="-100525445" from="171981942" to="258908518" priority="3" type="highway.residential" numLanes="1" speed="8.33" shape="2615.51,2565.54 2617.11,2560.64 2641.37,2486.57 2641.97,2484.74 2643.52,2480.00" disallow="tram rail_urban rail rail_electric rail_fast ship" />
    <edge id="-1006827381" from="847832096" to="1171068836" priority="3" type="highway.residential" numLanes="1" speed="8.33" disallow="tram rail_urban rail rail_electric rail_fast ship" />
    <edge id="-101411571#0" from="1171034423" to="847832020" priority="3" type="highway.residential" numLanes="1" speed="13.89" disallow="tram rail_urban rail rail_electric rail_fast ship" />
    <edge id="-101411571#1" from="1171034464" to="1171034423" priority="3" type="highway.residential" numLanes="1" speed="13.89" disallow="tram rail_urban rail rail_electric rail_fast ship" />
    <edge id="-101415864#0" from="1171060052" to="1171052248" priority="3" type="highway.residential" numLanes="1" speed="13.89" disallow="tram rail_urban rail rail_electric rail_fast ship" />
    <edge id="-101415864#1" from="1171052198" to="1171060052" priority="3" type="highway.residential" numLanes="1" speed="13.89" disallow="tram rail_urban rail rail_electric rail_fast ship" />
    <edge id="-101415865#0" from="1171052112" to="1171034472" priority="3" type="highway.residential" numLanes="1" speed="8.33" shape="2353.24,2004.80 2384.60,2043.83 2399.82,2062.60 2421.57,2089.52 2430.94,2099.30 2467.41,2137.33 2496.47,2162.01 2537.79,2192.89 2548.31,2204.73" disallow="tram rail_urban rail rail_electric rail_fast ship" />
    <edge id="-101415865#1" from="1351127446" to="1171052112" priority="3" type="highway.residential" numLanes="1" speed="8.33" disallow="tram rail_urban rail rail_electric rail_fast ship" />
    <edge id="-101415865#2" from="1171052110" to="1351127446" priority="3" type="highway.residential" numLanes="1" speed="8.33" shape="2274.54,1752.31 2277.26,1755.57 2278.16,1756.65 2280.54,1772.60 2283.38,1852.25 2283.91,1861.72 2285.36,1866.44 2290.47,1878.00 2321.72,1941.33" disallow="tram rail_urban rail rail_electric rail_fast ship" />
    <edge id="-101416507" from="1171060060" to="1171060052" priority="3" type="highway.residential" numLanes="1" speed="13.89" shape="3457.98,2605.05 3418.58,2581.83 3414.02,2581.67 3409.78,2582.72 3406.36,2586.10 3397.91,2598.56 3394.38,2600.48 3389.23,2600.94 3383.84,2599.14 3344.57,2573.48" disallow="tram rail_urban rail rail_electric rail_fast ship" />
    <edge id="-101416509" from="1171060031" to="1171046127" priority="3" type="highway.residential" numLanes="1" speed="13.89" shape="3443.06,2664.86 3399.85,2638.40 3395.68,2637.57 3390.77,2638.90 3386.93,2641.42 3367.73,2671.97" disallow="tram rail_urban rail rail_electric rail_fast ship" />
    <edge id="-101418584#0" from="8638578434" to="1171084257" priority="3" type="highway.residential" numLanes="1" speed="8.33" shape="2289.95,2451.04 2178.65,2376.06 2169.00,2370.27 2155.72,2367.68 2147.04,2362.77 2120.42,2344.54" disallow="tram rail_urban rail rail_electric rail_fast ship" />
    <edge id="-101418584#1" from="1171084344" to="8638578434" priority="3" type="highway.residential" numLanes="1" speed="8.33" shape="2485.77,2580.90 2454.74,2563.58 2346.67,2489.26 2289.95,2451.04" disallow="tram rail_urban rail rail_electric rail_fast ship" />
    <edge id="-101418584#2" from="1353867565" to="1171084344" priority="3" type="highway.residential" numLanes="1" speed="8.33" disallow="tram rail_urban rail rail_electric rail_fast ship" />
    <edge id="-101418584#3" from="1171084196" to="1353867565" priority="3" type="highway.residential" numLanes="1" speed="8.33" shape="2583.23,2628.57 2563.22,2618.78 2559.63,2617.09" disallow="tram rail_urban rail rail_electric rail_fast ship" />
    <edge id="-101418584#4" from="1171084338" to="1171084196" priority="3" type="highway.residential" numLanes="1" speed="8.33" disallow="tram rail_urban rail rail_electric rail_fast ship" />
    <edge id="-101418587" from="1171084432" to="1171084338" priority="3" type="highway.residential" numLanes="1" speed="13.89" shape="2614.68,2647.97 2603.22,2642.96 2590.91,2632.25" disallow="tram rail_urban rail rail_electric rail_fast ship" />
    <edge id="-101418589" from="1171084202" to="1171084086" priority="2" type="highway.living_street" numLanes="1" speed="2.78" disallow="tram rail_urban rail rail_electric rail_fast ship" />
    <edge id="-101418591" from="1171084201" to="1171084234" priority="2" type="highway.living_street" numLanes="1" speed="2.78" disallow="tram rail_urban rail rail_electric rail_fast ship" />
    <edge id="-101418592" from="1171084344" to="1171084380" priority="3" type="highway.residential" numLanes="1" speed="13.89" shape="2485.77,2580.90 2479.56,2589.47 2459.48,2601.99 2440.86,2614.68 2437.54,2616.93" disallow="tram rail_urban rail rail_electric rail_fast ship" />
    <edge id="-101594809#0" from="1172926241" to="1172926260" priority="3" type="highway.residential" numLanes="1" speed="8.33" shape="3544.58,2949.64 3500.56,3089.55 3496.08,3093.76 3469.12,3105.36 3426.60,3092.11 3411.18,3087.29" disallow="tram rail_urban rail rail_electric rail_fast ship" />
    <edge id="-101594809#1" from="1172926171" to="1172926241" priority="3" type="highway.residential" numLanes="1" speed="8.33" disallow="tram rail_urban rail rail_electric rail_fast ship" />
    <edge id="-101594826" from="1172926236" to="1172926247" priority="3" type="highway.residential" numLanes="1" speed="8.33" shape="2905.01,2835.34 2829.70,2784.69 2827.10,2782.76 2826.07,2779.42 2826.79,2774.87 2840.22,2741.98 2843.22,2735.27" disallow="tram rail_urban rail rail_electric rail_fast ship" />
    <edge id="-101594830" from="1172926250" to="1172926211" priority="3" type="highway.residential" numLanes="1" speed="8.33" shape="2977.51,2917.87 2969.88,2886.90 2967.33,2873.80 2964.63,2854.71 2962.62,2829.80 2961.36,2789.06 2963.11,2783.33 2964.15,2777.79 2965.20,2772.24" disallow="tram rail_urban rail rail_electric rail_fast ship" />
    <edge id="-101594836#0" from="1172926260" to="1172926188" priority="3" type="highway.residential" numLanes="1" speed="8.33" shape="3411.18,3087.29 3408.47,3099.67 3403.94,3107.85 3381.68,3127.32" disallow="tram rail_urban rail rail_electric rail_fast ship" />
    <edge id="-101594836#1" from="1172926232" to="1172926260" priority="3" type="highway.residential" numLanes="1" speed="8.33" shape="3455.47,2939.64 3451.22,2953.89 3416.43,3069.81 3411.18,3087.29" disallow="tram rail_urban rail rail_electric rail_fast ship" />
    <edge id="-101594843" from="1172926229" to="1929238581" priority="3" type="highway.residential" numLanes="1" speed="8.33" shape="3504.88,2842.63 3474.29,2870.38 3467.56,2897.12 3464.22,2907.92" disallow="tram rail_urban rail rail_electric rail_fast ship" />
    <edge id="-101599070" from="1172949639" to="1172949591" priority="3" type="highway.residential" numLanes="1" speed="13.89" shape="2581.15,3610.34 2533.52,3598.68 2527.16,3596.40 2520.58,3593.14 2515.19,3589.26 2473.81,3559.27 2467.05,3556.20 2459.49,3553.74 2432.14,3550.38" disallow="tram rail_urban rail rail_electric rail_fast ship" />
    <edge id="-101599072" from="1172926202" to="1172949652" priority="3" type="highway.residential" numLanes="1" speed="8.33" shape="3443.59,2918.77 3429.93,2914.82 3368.32,2896.97" disallow="tram rail_urban rail rail_electric rail_fast ship" />
    <edge id="-101599076#0" from="1617895855" to="1172949672" priority="3" type="highway.residential" numLanes="1" speed="13.89" shape="2825.57,3522.32 2812.28,3525.37 2808.14,3527.19 2710.25,3586.05 2696.98,3587.68" disallow="tram rail_urban rail rail_electric rail_fast ship" />
    <edge id="-101599076#1" from="1172949659" to="1617895855" priority="3" type="highway.residential" numLanes="1" speed="13.89" disallow="tram rail_urban rail rail_electric rail_fast ship" />
    <edge id="-101599083#0" from="11047788076" to="1172949655" priority="3" type="highway.residential" numLanes="1" speed="13.89" shape="2672.40,3579.84 2669.14,3578.94 2611.20,3566.30 2592.81,3562.07" disallow="tram rail_urban rail rail_electric rail_fast ship" />
    <edge id="-101599083#1" from="1172949680" to="11047788076" priority="3" type="highway.residential" numLanes="1" speed="13.89" disallow="tram rail_urban rail rail_electric rail_fast ship" />
    <edge id="-101600741#0" from="1172966009" to="534718083" priority="3" type="highway.residential" numLanes="1" speed="8.33" disallow="tram rail_urban rail rail_electric rail_fast ship" />
    <edge id="-101600741#1" from="1172985102" to="1172966009" priority="3" type="highway.residential" numLanes="1" speed="8.33" disallow="tram rail_urban rail rail_electric rail_fast ship" />
    <edge id="-101600741#2" from="1172985096" to="1172985102" priority="3" type="highway.residential" numLanes="1" speed="8.33" disallow="tram rail_urban rail rail_electric rail_fast ship" />
    <edge id="-101600741#3" from="1172985047" to="1172985096" priority="3" type="highway.residential" numLanes="1" speed="8.33" disallow="tram rail_urban rail rail_electric rail_fast ship" />
    <edge id="-101600741#4" from="1172966013" to="1172985047" priority="3" type="highway.residential" numLanes="1" speed="8.33" shape="3059.69,3333.09 3055.31,3333.00 3000.65,3331.77" disallow="tram rail_urban rail rail_electric rail_fast ship" />
    <edge id="-101601551" from="1172985096" to="1172985063" priority="3" type="highway.residential" numLanes="1" speed="13.89" shape="2910.67,3328.50 2908.22,3395.80 2907.79,3435.86" disallow="tram rail_urban rail rail_electric rail_fast ship" />
    <edge id="-101601553#0" from="1172985090" to="1172985047" priority="3" type="highway.residential" numLanes="1" speed="8.33" disallow="tram rail_urban rail rail_electric rail_fast ship" />
    <edge id="-101601553#1" from="1162051794" to="1172985090" priority="3" type="highway.residential" numLanes="1" speed="8.33" shape="2939.61,3141.03 2937.31,3252.96 2937.95,3256.89 2940.39,3261.20 2944.99,3265.09 2950.38,3268.17 3000.41,3282.02" disallow="tram rail_urban rail rail_electric rail_fast ship" />
    <edge id="-101601557" from="1172985090" to="1172985104" priority="3" type="highway.residential" numLanes="1" speed="13.89" shape="3000.41,3282.02 3004.56,3280.04 3007.69,3277.44 3009.22,3273.86 3009.76,3263.99" disallow="tram rail_urban rail rail_electric rail_fast ship" />
    <edge id="-101601559" from="534718081" to="1172985101" priority="3" type="highway.residential" numLanes="1" speed="13.89" shape="2627.50,3320.05 2597.24,3315.08 2588.32,3313.83 2514.64,3308.35" disallow="tram rail_urban rail rail_electric rail_fast ship" />
    <edge id="-101601561" from="1172985047" to="1172985093" priority="3" type="highway.residential" numLanes="1" speed="13.89" shape="3000.65,3331.77 2982.62,3367.16 2981.43,3424.57" disallow="tram rail_urban rail rail_electric rail_fast ship" />
    <edge id="-101601563" from="1172966009" to="1172985083" priority="3" type="highway.residential" numLanes="1" speed="8.33" disallow="tram rail_urban rail rail_electric rail_fast ship" />
    <edge id="-101601830" from="1172993700" to="1172993712" priority="3" type="highway.residential" numLanes="1" speed="13.89" shape="2572.08,2945.65 2547.49,2967.36 2545.58,2986.73" disallow="tram rail_urban rail rail_electric rail_fast ship" />
    <edge id="-101601831" from="1172993711" to="1172993763" priority="3" type="highway.residential" numLanes="1" speed="8.33" shape="2688.18,3082.39 2609.50,3072.45 2600.39,3071.99 2590.42,3072.81 2558.92,3078.09 2546.66,3078.65 2531.40,3077.88 2504.04,3073.92 2458.81,3065.47" disallow="tram rail_urban rail rail_electric rail_fast ship" />
    <edge id="-101601832#0" from="7900125515" to="1172993753" priority="3" type="highway.residential" numLanes="1" speed="13.89" shape="2537.03,2942.47 2495.44,2938.69 2490.50,2938.96 2486.77,2940.98 2482.85,2943.40 2479.33,2947.21 2462.26,2971.52" disallow="tram rail_urban rail rail_electric rail_fast ship" />
    <edge id="-101601832#1" from="1172993700" to="7900125515" priority="3" type="highway.residential" numLanes="1" speed="13.89" disallow="tram rail_urban rail rail_electric rail_fast ship" />
    <edge id="-101601832#2" from="1172993756" to="1172993700" priority="3" type="highway.residential" numLanes="1" speed="13.89" shape="2700.10,2991.35 2625.71,2985.81 2620.15,2984.30 2615.55,2980.62 2590.40,2951.38 2585.80,2947.69 2580.24,2946.39 2572.08,2945.65" disallow="tram rail_urban rail rail_electric rail_fast ship" />
    <edge id="-101604496#0" from="1173023737" to="1173023819" priority="3" type="highway.residential" numLanes="1" speed="13.89" shape="2793.67,3082.72 2798.86,3043.57 2803.66,3004.45" disallow="tram rail_urban rail rail_electric rail_fast ship" />
    <edge id="-101604496#1" from="1162051803" to="1173023737" priority="3" type="highway.residential" numLanes="1" speed="13.89" shape="2756.48,3133.34 2789.11,3096.79 2791.63,3092.61 2793.67,3082.72" disallow="tram rail_urban rail rail_electric rail_fast ship" />
    <edge id="-101604497" from="1173023819" to="1173023825" priority="3" type="highway.residential" numLanes="1" speed="13.89" disallow="tram rail_urban rail rail_electric rail_fast ship" />
    <edge id="-101604499" from="1173023823" to="1161512966" priority="3" type="highway.residential" numLanes="1" speed="13.89" shape="2798.08,2838.56 2771.26,2821.88 2753.40,2816.95 2747.32,2815.05 2745.14,2814.14" disallow="tram rail_urban rail rail_electric rail_fast ship" />
    <edge id="-101604502" from="1173023737" to="1173023772" priority="3" type="highway.residential" numLanes="1" speed="13.89" shape="2793.67,3082.72 2830.54,3087.33 2836.07,3086.46 2850.57,3075.80 2853.86,3070.43 2858.72,3036.22" disallow="tram rail_urban rail rail_electric rail_fast ship" />
    <edge id="-101604503" from="1173023796" to="1173023822" priority="3" type="highway.residential" numLanes="1" speed="13.89" disallow="tram rail_urban rail rail_electric rail_fast ship" />
    <edge id="-101604508" from="1173023823" to="1173023769" priority="3" type="highway.residential" numLanes="1" speed="13.89" shape="2798.08,2838.56 2793.06,2848.09 2783.29,2866.72 2779.25,2882.16 2778.39,2893.20 2778.55,2903.45 2779.61,2914.39 2782.57,2919.54 2789.28,2923.54 2808.84,2929.39 2852.79,2947.50" disallow="tram rail_urban rail rail_electric rail_fast ship" />
    <edge id="-101604511" from="1173023772" to="1173023845" priority="3" type="highway.residential" numLanes="1" speed="13.89" disallow="tram rail_urban rail rail_electric rail_fast ship" />
    <edge id="-101604513#0" from="1173023796" to="1173023842" priority="3" type="highway.residential" numLanes="1" speed="13.89" disallow="tram rail_urban rail rail_electric rail_fast ship" />
    <edge id="-101604513#1" from="1173023849" to="1173023796" priority="3" type="highway.residential" numLanes="1" speed="13.89" disallow="tram rail_urban rail rail_electric rail_fast ship" />
    <edge id="-101604518" from="1173023772" to="1173023750" priority="3" type="highway.residential" numLanes="1" speed="13.89" disallow="tram rail_urban rail rail_electric rail_fast ship" />
    <edge id="-101604521" from="1173023875" to="854696199" priority="3" type="highway.residential" numLanes="1" speed="13.89" shape="2702.16,2833.61 2641.79,2861.48 2628.60,2866.01 2617.66,2869.22 2602.66,2872.38 2588.85,2874.76 2529.27,2873.16" disallow="tram rail_urban rail rail_electric rail_fast ship" />
    <edge id="-101605219" from="1173027844" to="1173027927" priority="3" type="highway.residential" numLanes="1" speed="13.89" shape="2635.80,2749.02 2601.18,2815.29 2598.08,2820.46 2591.63,2826.66 2584.17,2830.53 2572.51,2831.48 2562.39,2829.84 2554.03,2826.40 2547.22,2820.19 2544.10,2809.37 2543.92,2796.15 2541.79,2785.73 2536.70,2775.54 2529.86,2767.36 2525.05,2762.88 2517.87,2758.84 2499.58,2752.58 2489.42,2748.18 2481.83,2742.77 2475.20,2735.36 2470.72,2726.74 2467.82,2717.70 2466.72,2709.83 2466.80,2700.75 2469.24,2691.44 2473.30,2684.48 2478.35,2677.70 2497.90,2657.12" disallow="tram rail_urban rail rail_electric rail_fast ship" />
    <edge id="-101605947#0" from="1173043032" to="1173042983" priority="3" type="highway.residential" numLanes="1" speed="13.89" shape="2345.32,2902.95 2334.06,2935.25 2334.30,2947.95" disallow="tram rail_urban rail rail_electric rail_fast ship" />
    <edge id="-101605947#1" from="4171701403" to="1173043032" priority="3" type="highway.residential" numLanes="1" speed="13.89" shape="2378.97,2815.61 2359.66,2865.12 2345.32,2902.95" disallow="tram rail_urban rail rail_electric rail_fast ship" />
    <edge id="-101605947#2" from="1173043020" to="4171701403" priority="3" type="highway.residential" numLanes="1" speed="13.89" disallow="tram rail_urban rail rail_electric rail_fast ship" />
    <edge id="-101605948" from="1173043021" to="1173042905" priority="3" type="highway.residential" numLanes="1" speed="13.89" shape="2236.39,2616.10 2290.71,2646.58 2311.43,2656.75 2325.56,2662.07 2336.87,2664.68 2354.13,2667.60" disallow="tram rail_urban rail rail_electric rail_fast ship" />
    <edge id="-101605949" from="1173043032" to="1173043012" priority="3" type="highway.residential" numLanes="1" speed="13.89" disallow="tram rail_urban rail rail_electric rail_fast ship" />
    <edge id="-101605950" from="1173042988" to="1173042914" priority="3" type="highway.residential" numLanes="1" speed="13.89" disallow="tram rail_urban rail rail_electric rail_fast ship" />
    <edge id="-101605951#0" from="1173043021" to="1161680870" priority="3" type="highway.residential" numLanes="1" speed="13.89" shape="2236.39,2616.10 2237.80,2612.79 2263.24,2549.92" disallow="tram rail_urban rail rail_electric rail_fast ship" />
    <edge id="-101605951#1" from="1173042949" to="1173043021" priority="3" type="highway.residential" numLanes="1" speed="13.89" shape="2218.78,2681.72 2219.05,2673.62 2220.31,2664.33 2222.37,2655.62 2224.81,2645.93 2229.66,2631.95 2236.39,2616.10" disallow="tram rail_urban rail rail_electric rail_fast ship" />
    <edge id="-101605951#2" from="1173042988" to="1173042949" priority="3" type="highway.residential" numLanes="1" speed="13.89" shape="2221.83,2705.28 2220.64,2702.41 2219.33,2693.35 2218.78,2681.72" disallow="tram rail_urban rail rail_electric rail_fast ship" />
    <edge id="-101605951#3" from="1173043020" to="1173042988" priority="3" type="highway.residential" numLanes="1" speed="13.89" shape="2388.88,2790.18 2361.02,2778.38 2312.65,2758.34 2271.64,2740.37 2257.88,2733.06 2237.73,2721.11 2229.34,2715.70 2224.13,2710.85 2221.83,2705.28" disallow="tram rail_urban rail rail_electric rail_fast ship" />
    <edge id="-101605951#4" from="1353867616" to="1173043020" priority="3" type="highway.residential" numLanes="1" speed="13.89" disallow="tram rail_urban rail rail_electric rail_fast ship" />
    <edge id="-101605951#5" from="1173043030" to="1353867616" priority="3" type="highway.residential" numLanes="1" speed="13.89" shape="2442.15,2848.68 2441.84,2826.59 2438.77,2819.33 2434.13,2813.86 2421.77,2806.55 2391.53,2791.33" disallow="tram rail_urban rail rail_electric rail_fast ship" />
    <edge id="-101606546" from="1173042949" to="1173049317" priority="3" type="highway.residential" numLanes="1" speed="13.89" shape="2218.78,2681.72 2203.48,2677.79 2193.89,2671.02 2181.47,2660.54 2164.65,2646.17 2152.86,2638.05 2139.73,2631.13" disallow="tram rail_urban rail rail_electric rail_fast ship" />
    <edge id="-101606547#0" from="1173049317" to="1173049311" priority="3" type="highway.residential" numLanes="1" speed="13.89" shape="2139.73,2631.13 2146.54,2625.12 2155.10,2614.54 2161.29,2604.59 2164.54,2596.25 2165.59,2586.57 2164.49,2578.30 2161.22,2571.05 2156.78,2564.80 2149.57,2558.78 2135.63,2551.87 2125.98,2541.05" disallow="tram rail_urban rail rail_electric rail_fast ship" />
    <edge id="-101606547#1" from="1173049296" to="1173049317" priority="3" type="highway.residential" numLanes="1" speed="13.89" disallow="tram rail_urban rail rail_electric rail_fast ship" />
    <edge id="-101606547#2" from="1173049308" to="1173049296" priority="3" type="highway.residential" numLanes="1" speed="13.89" shape="2085.38,2701.74 2096.44,2678.90 2105.75,2665.35 2117.23,2651.18 2131.10,2638.75 2135.93,2634.48" disallow="tram rail_urban rail rail_electric rail_fast ship" />
    <edge id="-101606549" from="1173049296" to="1173049282" priority="3" type="highway.residential" numLanes="1" speed="13.89" disallow="tram rail_urban rail rail_electric rail_fast ship" />
    <edge id="-101607098#0" from="1173060679" to="1173060722" priority="3" type="highway.residential" numLanes="1" speed="8.33" shape="3318.71,3163.43 3300.24,3156.00 3222.96,3119.19" disallow="tram rail_urban rail rail_electric rail_fast ship" />
    <edge id="-101607098#1" from="5518678795" to="1173060679" priority="3" type="highway.residential" numLanes="1" speed="8.33" shape="3378.34,3185.83 3337.25,3170.88 3318.71,3163.43" disallow="tram rail_urban rail rail_electric rail_fast ship" />
    <edge id="-101607098#2" from="1173060728" to="5518678795" priority="3" type="highway.residential" numLanes="1" speed="8.33" disallow="tram rail_urban rail rail_electric rail_fast ship" />
    <edge id="-101607101" from="1173060750" to="1173060688" priority="3" type="highway.residential" numLanes="1" speed="8.33" shape="3164.79,3190.83 3176.47,3191.64 3184.19,3191.74 3189.92,3191.07 3196.03,3189.61 3201.14,3186.97 3211.17,3181.89" disallow="tram rail_urban rail rail_electric rail_fast ship" />
    <edge id="-101607965" from="1173060728" to="1173080084" priority="3" type="highway.residential" numLanes="1" speed="8.33" shape="3429.23,3204.36 3421.45,3219.95 3413.67,3235.53" disallow="tram rail_urban rail rail_electric rail_fast ship" />
    <edge id="-101607966#0" from="1173080036" to="1173079957" priority="3" type="highway.residential" numLanes="1" speed="13.89" shape="3221.46,3323.34 3203.87,3327.40 3178.24,3333.87 3158.72,3338.47 3148.25,3340.00 3120.58,3342.56 3114.33,3340.99 3110.06,3337.67 3107.07,3334.22 3105.14,3330.03 3104.34,3325.85 3104.28,3322.06 3114.55,3275.96" disallow="tram rail_urban rail rail_electric rail_fast ship" />
    <edge id="-101607966#1" from="1173080042" to="1173080036" priority="3" type="highway.residential" numLanes="1" speed="13.89" shape="3300.39,3304.37 3282.03,3312.90 3268.41,3315.66 3237.01,3320.23 3221.46,3323.34" disallow="tram rail_urban rail rail_electric rail_fast ship" />
    <edge id="-101607967#0" from="1173100644" to="1173080080" priority="3" type="highway.residential" numLanes="1" speed="8.33" disallow="tram rail_urban rail rail_electric rail_fast ship" />