<?xml version="1.0" encoding="UTF-8"?>

<!-- generated on 2025-04-08 12:37:16 by Eclipse SUMO netconvert Version 1.19.0
<configuration xmlns:xsi="http://www.w3.org/2001/XMLSchema-instance" xsi:noNamespaceSchemaLocation="http://sumo.dlr.de/xsd/netconvertConfiguration.xsd">

    <input>
        <sumo-net-file value="saint_arnoult/saint_arnoult.net.xml"/>
    </input>

    <output>
        <plain-output-prefix value="saint_arnoult/saint_arnoult"/>
    </output>

    <processing>
        <geometry.min-radius.fix.railways value="false"/>
        <geometry.max-grade.fix value="false"/>
        <offset.disable-normalization value="true"/>
        <lefthand value="0"/>
    </processing>

    <tls_building>
        <tls.ignore-internal-junction-jam value="1"/>
    </tls_building>

    <junctions>
        <no-turnarounds value="true"/>
        <junctions.corner-detail value="5"/>
        <junctions.limit-turn-speed value="5.50"/>
        <rectangular-lane-cut value="0"/>
    </junctions>

    <pedestrian>
        <walkingareas value="0"/>
    </pedestrian>

</configuration>
-->

<connections version="1.16" xmlns:xsi="http://www.w3.org/2001/XMLSchema-instance" xsi:noNamespaceSchemaLocation="http://sumo.dlr.de/xsd/connections_file.xsd">
    <connection from="-100468675#0" to="100468664" fromLane="0" toLane="0"/>
    <connection from="-100468675#0" to="100468675#0" fromLane="0" toLane="0"/>

    <connection from="-100468675#1" to="148716292#0" fromLane="0" toLane="0"/>
    <connection from="-100468675#1" to="-100468675#0" fromLane="0" toLane="0"/>

    <connection from="-100468675#2" to="-100468675#1" fromLane="0" toLane="0"/>
    <connection from="-100468675#2" to="-101599070" fromLane="0" toLane="0"/>
    <connection from="-100468675#2" to="100468675#2" fromLane="0" toLane="0"/>

    <connection from="-100468675#3" to="101599083#0" fromLane="0" toLane="0"/>
    <connection from="-100468675#3" to="-100468675#2" fromLane="0" toLane="0"/>
    <connection from="-100468675#3" to="100468675#3" fromLane="0" toLane="0"/>

    <connection from="-100468681#0" to="100468665" fromLane="0" toLane="0"/>
    <connection from="-100468681#0" to="100468681#0" fromLane="0" toLane="0"/>

    <connection from="-100468681#1" to="-100468681#0" fromLane="0" toLane="0"/>

    <connection from="-100468681#2" to="118557811#0" fromLane="0" toLane="0"/>
    <connection from="-100468681#2" to="-100468681#1" fromLane="0" toLane="0"/>
    <connection from="-100468681#2" to="100468681#2" fromLane="0" toLane="0"/>

    <connection from="-100468681#3" to="-100468681#2" fromLane="0" toLane="0"/>
    <connection from="-100468681#3" to="-101600741#4" fromLane="0" toLane="0"/>
    <connection from="-100468681#3" to="100468681#3" fromLane="0" toLane="0"/>

    <connection from="-100468681#4" to="-100468681#3" fromLane="0" toLane="0"/>
    <connection from="-100468681#4" to="100468681#4" fromLane="0" toLane="0"/>

    <connection from="-100468681#5" to="101607105" fromLane="0" toLane="0"/>
    <connection from="-100468681#5" to="-100468681#4" fromLane="0" toLane="0"/>
    <connection from="-100468681#5" to="100468681#5" fromLane="0" toLane="0"/>

    <connection from="-100468681#6" to="416407591" fromLane="0" toLane="0"/>
    <connection from="-100468681#6" to="-100468681#5" fromLane="0" toLane="0"/>

    <connection from="-100468681#7" to="-100468681#6" fromLane="0" toLane="0"/>
    <connection from="-100468681#7" to="100525438#0" fromLane="0" toLane="0"/>
    <connection from="-100468681#7" to="100468681#7" fromLane="0" toLane="0"/>

    <connection from="-100468681#8" to="-100468681#7" fromLane="0" toLane="0"/>
    <connection from="-100468681#8" to="416366114" fromLane="0" toLane="0"/>

    <connection from="-100488715#0" to="-162276533#1" fromLane="0" toLane="0"/>
    <connection from="-100488715#0" to="162276533#2" fromLane="0" toLane="0"/>
    <connection from="-100488715#0" to="100488715#0" fromLane="0" toLane="0"/>

    <connection from="-100488715#1" to="416428975#0" fromLane="0" toLane="0"/>
    <connection from="-100488715#1" to="-100488715#0" fromLane="0" toLane="0"/>

    <connection from="-100488715#2" to="-102037781" fromLane="0" toLane="0"/>
    <connection from="-100488715#2" to="-100488715#1" fromLane="0" toLane="0"/>
    <connection from="-100488715#2" to="100488715#2" fromLane="0" toLane="0"/>

    <connection from="-100488715#3" to="101605951#0" fromLane="0" toLane="0"/>
    <connection from="-100488715#3" to="-100488715#2" fromLane="0" toLane="0"/>
    <connection from="-100488715#3" to="100488715#3" fromLane="0" toLane="0"/>

    <connection from="-100488715#4" to="-100488715#3" fromLane="0" toLane="0"/>
    <connection from="-100488715#4" to="101418592" fromLane="0" toLane="0"/>
    <connection from="-100488715#4" to="100488715#4" fromLane="0" toLane="0"/>

    <connection from="-100488715#5" to="120829754" fromLane="0" toLane="0"/>
    <connection from="-100488715#5" to="-100488715#4" fromLane="0" toLane="0"/>
    <connection from="-100488715#5" to="100488715#5" fromLane="0" toLane="0"/>

    <connection from="-100488715#6" to="101605219" fromLane="0" toLane="0"/>
    <connection from="-100488715#6" to="-100488715#5" fromLane="0" toLane="0"/>
    <connection from="-100488715#6" to="100488715#6" fromLane="0" toLane="0"/>

    <connection from="-100488715#7" to="-101605219" fromLane="0" toLane="0"/>
    <connection from="-100488715#7" to="-100488715#6" fromLane="0" toLane="0"/>
    <connection from="-100488715#7" to="100488715#7" fromLane="0" toLane="0"/>

    <connection from="-100525438#0" to="100468681#7" fromLane="0" toLane="0"/>
    <connection from="-100525438#0" to="-100468681#6" fromLane="0" toLane="0"/>
    <connection from="-100525438#0" to="100525438#0" fromLane="0" toLane="0"/>

    <connection from="-100525438#1" to="-100525438#0" fromLane="0" toLane="0"/>
    <connection from="-100525438#1" to="-101601553#1" fromLane="0" toLane="0"/>
    <connection from="-100525438#1" to="100525438#1" fromLane="0" toLane="0"/>

    <connection from="-100525438#2" to="-101604496#1" fromLane="0" toLane="0"/>
    <connection from="-100525438#2" to="-100525438#1" fromLane="0" toLane="0"/>
    <connection from="-100525438#2" to="100525438#2" fromLane="0" toLane="0"/>

    <connection from="-100525440" to="100525440" fromLane="0" toLane="0"/>

    <connection from="-100525445" to="526438862#0" fromLane="0" toLane="1"/>
    <connection from="-100525445" to="100525445" fromLane="0" toLane="0"/>

    <connection from="-1006827381" to="-71223800#7" fromLane="0" toLane="0"/>
    <connection from="-1006827381" to="101417074" fromLane="0" toLane="0"/>
    <connection from="-1006827381" to="1006827381" fromLane="0" toLane="0"/>

    <connection from="-101411571#0" to="120511301" fromLane="0" toLane="0"/>
    <connection from="-101411571#0" to="120509990" fromLane="0" toLane="0"/>
    <connection from="-101411571#0" to="101411571#0" fromLane="0" toLane="0"/>

    <connection from="-101411571#1" to="-101411571#0" fromLane="0" toLane="0"/>
    <connection from="-101411571#1" to="-47374680#8" fromLane="0" toLane="0"/>
    <connection from="-101411571#1" to="101411571#1" fromLane="0" toLane="0"/>

    <connection from="-101415864#0" to="71324343#2" fromLane="0" toLane="0"/>
    <connection from="-101415864#0" to="-71324343#1" fromLane="0" toLane="0"/>
    <connection from="-101415864#0" to="101415864#0" fromLane="0" toLane="0"/>

    <connection from="-101415864#1" to="101416507" fromLane="0" toLane="0"/>
    <connection from="-101415864#1" to="-101415864#0" fromLane="0" toLane="0"/>
    <connection from="-101415864#1" to="101415864#1" fromLane="0" toLane="0"/>

    <connection from="-101415865#0" to="47374680#2" fromLane="0" toLane="0"/>
    <connection from="-101415865#0" to="-47374680#1" fromLane="0" toLane="0"/>
    <connection from="-101415865#0" to="101415865#0" fromLane="0" toLane="0"/>

    <connection from="-101415865#1" to="-101749449#1" fromLane="0" toLane="0"/>
    <connection from="-101415865#1" to="-101415865#0" fromLane="0" toLane="0"/>
    <connection from="-101415865#1" to="-101749458#1" fromLane="0" toLane="0"/>
    <connection from="-101415865#1" to="101415865#1" fromLane="0" toLane="0"/>

    <connection from="-101415865#2" to="-101415865#1" fromLane="0" toLane="0"/>
    <connection from="-101415865#2" to="-120511303" fromLane="0" toLane="0"/>
    <connection from="-101415865#2" to="101415865#2" fromLane="0" toLane="0"/>

    <connection from="-101416507" to="-101415864#0" fromLane="0" toLane="0"/>
    <connection from="-101416507" to="101415864#1" fromLane="0" toLane="0"/>
    <connection from="-101416507" to="101416507" fromLane="0" toLane="0"/>

    <connection from="-101416509" to="71324343#3" fromLane="0" toLane="0"/>
    <connection from="-101416509" to="-71324343#2" fromLane="0" toLane="0"/>
    <connection from="-101416509" to="101416509" fromLane="0" toLane="0"/>

    <connection from="-101418584#0" to="101418584#0" fromLane="0" toLane="0"/>

    <connection from="-101418584#1" to="931818172#0" fromLane="0" toLane="0"/>
    <connection from="-101418584#1" to="-101418584#0" fromLane="0" toLane="0"/>

    <connection from="-101418584#2" to="-101418592" fromLane="0" toLane="0"/>
    <connection from="-101418584#2" to="-101418584#1" fromLane="0" toLane="0"/>
    <connection from="-101418584#2" to="101418584#2" fromLane="0" toLane="0"/>

    <connection from="-101418584#3" to="120829751" fromLane="0" toLane="0"/>
    <connection from="-101418584#3" to="-101418584#2" fromLane="0" toLane="0"/>

    <connection from="-101418584#4" to="-101418584#3" fromLane="0" toLane="0"/>

    <connection from="-101418587" to="-101418584#4" fromLane="0" toLane="0"/>
    <connection from="-101418587" to="416373452" fromLane="0" toLane="0"/>
    <connection from="-101418587" to="101418587" fromLane="0" toLane="0"/>

    <connection from="-101418589" to="1200809292" fromLane="0" toLane="0"/>
    <connection from="-101418589" to="101418589" fromLane="0" toLane="0"/>

    <connection from="-101418591" to="101418591" fromLane="0" toLane="0"/>

    <connection from="-101418592" to="100488715#4" fromLane="0" toLane="0"/>
    <connection from="-101418592" to="-100488715#3" fromLane="0" toLane="0"/>
    <connection from="-101418592" to="101418592" fromLane="0" toLane="0"/>

    <connection from="-101594809#0" to="-101594836#0" fromLane="0" toLane="0"/>
    <connection from="-101594809#0" to="101594836#1" fromLane="0" toLane="0"/>
    <connection from="-101594809#0" to="101594809#0" fromLane="0" toLane="0"/>

    <connection from="-101594809#1" to="-101594809#0" fromLane="0" toLane="0"/>
    <connection from="-101594809#1" to="336863934" fromLane="0" toLane="0"/>
    <connection from="-101594809#1" to="101594809#1" fromLane="0" toLane="0"/>

    <connection from="-101594826" to="-282689984#0" fromLane="0" toLane="0"/>
    <connection from="-101594826" to="282689984#1" fromLane="0" toLane="0"/>
    <connection from="-101594826" to="101594826" fromLane="0" toLane="0"/>

    <connection from="-101594830" to="282479125#1" fromLane="0" toLane="0"/>
    <connection from="-101594830" to="101594830" fromLane="0" toLane="0"/>

    <connection from="-101594836#0" to="-372606529#1" fromLane="0" toLane="0"/>
    <connection from="-101594836#0" to="372606529#2" fromLane="0" toLane="0"/>
    <connection from="-101594836#0" to="101594836#0" fromLane="0" toLane="0"/>

    <connection from="-101594836#1" to="101594809#0" fromLane="0" toLane="0"/>
    <connection from="-101594836#1" to="-101594836#0" fromLane="0" toLane="0"/>
    <connection from="-101594836#1" to="101594836#1" fromLane="0" toLane="0"/>

    <connection from="-101594843" to="101594812#1" fromLane="0" toLane="0" visibility="9.00"/>

    <connection from="-101599070" to="101599070" fromLane="0" toLane="0"/>

    <connection from="-101599072" to="-416434629" fromLane="0" toLane="0"/>
    <connection from="-101599072" to="101599072" fromLane="0" toLane="0"/>

    <connection from="-101599076#0" to="101599079#1" fromLane="0" toLane="0" visibility="9.00"/>

    <connection from="-101599076#1" to="148716467" fromLane="0" toLane="0"/>
    <connection from="-101599076#1" to="-101599076#0" fromLane="0" toLane="0"/>

    <connection from="-101599081#0" to="-148716292#3" fromLane="0" toLane="0"/>
    <connection from="-101599081#0" to="148716291#0" fromLane="0" toLane="0"/>
    <connection from="-101599081#0" to="148716292#4" fromLane="0" toLane="0"/>

    <connection from="-101599081#1" to="-101599081#0" fromLane="0" toLane="0"/>
    <connection from="-101599081#1" to="1189804069" fromLane="0" toLane="0"/>
    <connection from="-101599081#1" to="101599081#1" fromLane="0" toLane="0"/>

    <connection from="-101599083#0" to="-100468675#2" fromLane="0" toLane="0"/>
    <connection from="-101599083#0" to="100468675#3" fromLane="0" toLane="0"/>
    <connection from="-101599083#0" to="101599083#0" fromLane="0" toLane="0"/>

    <connection from="-101599083#1" to="-101599083#0" fromLane="0" toLane="0"/>

    <connection from="-101600741#0" to="-100468675#3" fromLane="0" toLane="0"/>

    <connection from="-101600741#1" to="-101600741#0" fromLane="0" toLane="0"/>
    <connection from="-101600741#1" to="-101601563" fromLane="0" toLane="0"/>
    <connection from="-101600741#1" to="101600741#1" fromLane="0" toLane="0"/>

    <connection from="-101600741#2" to="-101600741#1" fromLane="0" toLane="0"/>
    <connection from="-101600741#2" to="101601564" fromLane="0" toLane="0"/>

    <connection from="-101600741#3" to="-101601551" fromLane="0" toLane="0"/>
    <connection from="-101600741#3" to="-101600741#2" fromLane="0" toLane="0"/>
    <connection from="-101600741#3" to="101600741#3" fromLane="0" toLane="0"/>

    <connection from="-101600741#4" to="-101601561" fromLane="0" toLane="0"/>
    <connection from="-101600741#4" to="-101600741#3" fromLane="0" toLane="0"/>
    <connection from="-101600741#4" to="101601553#0" fromLane="0" toLane="0"/>
    <connection from="-101600741#4" to="101600741#4" fromLane="0" toLane="0"/>

    <connection from="-101601551" to="101601551" fromLane="0" toLane="0"/>

    <connection from="-101601553#0" to="101600741#4" fromLane="0" toLane="0"/>
    <connection from="-101601553#0" to="-101601561" fromLane="0" toLane="0"/>
    <connection from="-101601553#0" to="-101600741#3" fromLane="0" toLane="0"/>
    <connection from="-101601553#0" to="101601553#0" fromLane="0" toLane="0"/>

    <connection from="-101601553#1" to="-101601557" fromLane="0" toLane="0"/>
    <connection from="-101601553#1" to="-101601553#0" fromLane="0" toLane="0"/>
    <connection from="-101601553#1" to="101601553#1" fromLane="0" toLane="0"/>

    <connection from="-101601557" to="101601557" fromLane="0" toLane="0"/>

    <connection from="-101601559" to="120829752" fromLane="0" toLane="0"/>
    <connection from="-101601559" to="101601559" fromLane="0" toLane="0"/>

    <connection from="-101601561" to="101601561" fromLane="0" toLane="0"/>

    <connection from="-101601563" to="101601563" fromLane="0" toLane="0"/>

    <connection from="-101601564" to="101600741#2" fromLane="0" toLane="0"/>
    <connection from="-101601564" to="-101600741#1" fromLane="0" toLane="0"/>
    <connection from="-101601564" to="101601564" fromLane="0" toLane="0"/>

    <connection from="-101601830" to="101601830" fromLane="0" toLane="0"/>

    <connection from="-101601831" to="101601831" fromLane="0" toLane="0"/>

    <connection from="-101601832#0" to="101601832#0" fromLane="0" toLane="0"/>

    <connection from="-101601832#1" to="-101601832#0" fromLane="0" toLane="0"/>
    <connection from="-101601832#1" to="-846712072" fromLane="0" toLane="0"/>
    <connection from="-101601832#1" to="101601832#1" fromLane="0" toLane="0"/>

    <connection from="-101601832#2" to="-101601830" fromLane="0" toLane="0"/>
    <connection from="-101601832#2" to="-101601832#1" fromLane="0" toLane="0"/>
    <connection from="-101601832#2" to="101601832#2" fromLane="0" toLane="0"/>

    <connection from="-101604496#0" to="-101604497" fromLane="0" toLane="0"/>
    <connection from="-101604496#0" to="-416366112" fromLane="0" toLane="0"/>
    <connection from="-101604496#0" to="101604496#0" fromLane="0" toLane="0"/>

    <connection from="-101604496#1" to="-101604496#0" fromLane="0" toLane="0"/>
    <connection from="-101604496#1" to="-101604502" fromLane="0" toLane="0"/>
    <connection from="-101604496#1" to="101604496#1" fromLane="0" toLane="0"/>

    <connection from="-101604497" to="101604497" fromLane="0" toLane="0"/>

    <connection from="-101604499" to="100475363" fromLane="0" toLane="0"/>
    <connection from="-101604499" to="100475359" fromLane="0" toLane="0"/>
    <connection from="-101604499" to="101604499" fromLane="0" toLane="0"/>

    <connection from="-101604502" to="-101604511" fromLane="0" toLane="0"/>
    <connection from="-101604502" to="-101604518" fromLane="0" toLane="0"/>
    <connection from="-101604502" to="101604502" fromLane="0" toLane="0"/>

    <connection from="-101604503" to="-659278038#1" fromLane="0" toLane="0"/>
    <connection from="-101604503" to="659278038#2" fromLane="0" toLane="0"/>
    <connection from="-101604503" to="101604503" fromLane="0" toLane="0"/>

    <connection from="-101604508" to="101604508" fromLane="0" toLane="0"/>

    <connection from="-101604511" to="101604511" fromLane="0" toLane="0"/>

    <connection from="-101604513#0" to="101604513#0" fromLane="0" toLane="0"/>

    <connection from="-101604513#1" to="-101604513#0" fromLane="0" toLane="0"/>
    <connection from="-101604513#1" to="-101604503" fromLane="0" toLane="0"/>
    <connection from="-101604513#1" to="101604513#1" fromLane="0" toLane="0"/>

    <connection from="-101604518" to="101604518" fromLane="0" toLane="0"/>

    <connection from="-101604521" to="-416405704#2" fromLane="0" toLane="0"/>
    <connection from="-101604521" to="101604521" fromLane="0" toLane="0"/>

    <connection from="-101605219" to="-100488715#5" fromLane="0" toLane="0"/>
    <connection from="-101605219" to="100488715#6" fromLane="0" toLane="0"/>
    <connection from="-101605219" to="101605219" fromLane="0" toLane="0"/>

    <connection from="-101605947#0" to="-120829753#1" fromLane="0" toLane="0"/>
    <connection from="-101605947#0" to="101605947#0" fromLane="0" toLane="0"/>

    <connection from="-101605947#1" to="-101605949" fromLane="0" toLane="0"/>
    <connection from="-101605947#1" to="-101605947#0" fromLane="0" toLane="0"/>
    <connection from="-101605947#1" to="101605947#1" fromLane="0" toLane="0"/>

    <connection from="-101605947#2" to="-101605947#1" fromLane="0" toLane="0"/>
    <connection from="-101605947#2" to="-416428974" fromLane="0" toLane="0"/>
    <connection from="-101605947#2" to="101605947#2" fromLane="0" toLane="0"/>

    <connection from="-101605948" to="101605948" fromLane="0" toLane="0"/>

    <connection from="-101605949" to="101605949" fromLane="0" toLane="0"/>

    <connection from="-101605950" to="101605950" fromLane="0" toLane="0"/>

    <connection from="-101605951#0" to="-100488715#2" fromLane="0" toLane="0"/>
    <connection from="-101605951#0" to="100488715#3" fromLane="0" toLane="0"/>
    <connection from="-101605951#0" to="101605951#0" fromLane="0" toLane="0"/>

    <connection from="-101605951#1" to="-101605951#0" fromLane="0" toLane="0"/>
    <connection from="-101605951#1" to="-101605948" fromLane="0" toLane="0"/>
    <connection from="-101605951#1" to="101605951#1" fromLane="0" toLane="0"/>

    <connection from="-101605951#2" to="-101606546" fromLane="0" toLane="0"/>
    <connection from="-101605951#2" to="-101605951#1" fromLane="0" toLane="0"/>
    <connection from="-101605951#2" to="101605951#2" fromLane="0" toLane="0"/>

    <connection from="-101605951#3" to="-101605950" fromLane="0" toLane="0"/>
    <connection from="-101605951#3" to="-101605951#2" fromLane="0" toLane="0"/>
    <connection from="-101605951#3" to="101605951#3" fromLane="0" toLane="0"/>

    <connection from="-101605951#4" to="-101605947#2" fromLane="0" toLane="0"/>
    <connection from="-101605951#4" to="-101605951#3" fromLane="0" toLane="0"/>
    <connection from="-101605951#4" to="101605951#4" fromLane="0" toLane="0"/>

    <connection from="-101605951#5" to="-101605951#4" fromLane="0" toLane="0"/>
    <connection from="-101605951#5" to="-120829754" fromLane="0" toLane="0"/>
    <connection from="-101605951#5" to="101605951#5" fromLane="0" toLane="0"/>

    <connection from="-101606546" to="101606547#1" fromLane="0" toLane="0"/>
    <connection from="-101606546" to="-101606547#0" fromLane="0" toLane="0"/>
    <connection from="-101606546" to="101606546" fromLane="0" toLane="0"/>

    <connection from="-101606547#0" to="101606547#0" fromLane="0" toLane="0"/>

    <connection from="-101606547#1" to="-101606547#0" fromLane="0" toLane="0"/>
    <connection from="-101606547#1" to="101606546" fromLane="0" toLane="0"/>
    <connection from="-101606547#1" to="101606547#1" fromLane="0" toLane="0"/>

    <connection from="-101606547#2" to="-101606549" fromLane="0" toLane="0"/>
    <connection from="-101606547#2" to="-101606547#1" fromLane="0" toLane="0"/>
    <connection from="-101606547#2" to="101606547#2" fromLane="0" toLane="0"/>

    <connection from="-101606549" to="101606549" fromLane="0" toLane="0"/>

    <connection from="-101607098#0" to="101607098#0" fromLane="0" toLane="0"/>

    <connection from="-101607098#1" to="-101607098#0" fromLane="0" toLane="0"/>
    <connection from="-101607098#1" to="101607098#1" fromLane="0" toLane="0"/>

    <connection from="-101607098#2" to="-101607098#1" fromLane="0" toLane="0"/>
    <connection from="-101607098#2" to="-926833817" fromLane="0" toLane="0"/>

    <connection from="-101607101" to="101607107" fromLane="0" toLane="0"/>
    <connection from="-101607101" to="101607101" fromLane="0" toLane="0"/>

    <connection from="-101607965" to="101607964#1" fromLane="0" toLane="0"/>
    <connection from="-101607965" to="101607965" fromLane="0" toLane="0"/>

    <connection from="-101607966#0" to="101607969#1" fromLane="0" toLane="0"/>
    <connection from="-101607966#0" to="101607966#0" fromLane="0" toLane="0"/>

    <connection from="-101607966#1" to="-101608828" fromLane="0" toLane="0"/>
    <connection from="-101607966#1" to="-101607966#0" fromLane="0" toLane="0"/>
    <connection from="-101607966#1" to="101607966#1" fromLane="0" toLane="0"/>

    <connection from="-101607967#0" to="101607962" fromLane="0" toLane="0"/>
    <connection from="-101607967#0" to="101607967#0" fromLane="0" toLane="0"/>

    <connection from="-101607967#1" to="101608824" fromLane="0" toLane="0"/>
    <connection from="-101607967#1" to="-101607967#0" fromLane="0" toLane="0"/>
    <connection from="-101607967#1" to="101607967#1" fromLane="0" toLane="0"/>

    <connection from="-101608824" to="-101607967#0" fromLane="0" toLane="0"/>
    <connection from="-101608824" to="101607967#1" fromLane="0" toLane="0"/>
    <connection from="-101608824" to="101608824" fromLane="0" toLane="0"/>

    <connection from="-101608827" to="-336863927#2" fromLane="0" toLane="0"/>
    <connection from="-101608827" to="336863927#3" fromLane="0" toLane="0"/>
    <connection from="-101608827" to="101608827" fromLane="0" toLane="0"/>

    <connection from="-101608828" to="101609498#3" fromLane="0" toLane="0"/>
    <connection from="-101608828" to="-101609498#2" fromLane="0" toLane="0"/>
    <connection from="-101608828" to="101608828" fromLane="0" toLane="0"/>

    <connection from="-101608956" to="101608956" fromLane="0" toLane="0"/>

    <connection from="-101608959" to="101608959" fromLane="0" toLane="0"/>

    <connection from="-101608960" to="101608960" fromLane="0" toLane="0"/>

    <connection from="-101609494#0" to="101609494#0" fromLane="0" toLane="0"/>

    <connection from="-101609494#1" to="-101609494#0" fromLane="0" toLane="0"/>
    <connection from="-101609494#1" to="-101609495" fromLane="0" toLane="0"/>
    <connection from="-101609494#1" to="101609494#1" fromLane="0" toLane="0"/>

    <connection from="-101609495" to="101609495" fromLane="0" toLane="0"/>

    <connection from="-101609498#0" to="-336863927#3" fromLane="0" toLane="0"/>
    <connection from="-101609498#0" to="-101608960" fromLane="0" toLane="0"/>
    <connection from="-101609498#0" to="101609498#0" fromLane="0" toLane="0"/>

    <connection from="-101609498#1" to="-101609498#0" fromLane="0" toLane="0"/>
    <connection from="-101609498#1" to="-101608959" fromLane="0" toLane="0"/>
    <connection from="-101609498#1" to="101609498#1" fromLane="0" toLane="0"/>

    <connection from="-101609498#2" to="-101608827" fromLane="0" toLane="0"/>
    <connection from="-101609498#2" to="-101609498#1" fromLane="0" toLane="0"/>
    <connection from="-101609498#2" to="101609498#2" fromLane="0" toLane="0"/>

    <connection from="-101609498#3" to="-101609498#2" fromLane="0" toLane="0"/>
    <connection from="-101609498#3" to="101608828" fromLane="0" toLane="0"/>
    <connection from="-101609498#3" to="101609498#3" fromLane="0" toLane="0"/>

    <connection from="-101609498#4" to="-101609498#3" fromLane="0" toLane="0"/>
    <connection from="-101609498#4" to="-101608824" fromLane="0" toLane="0"/>
    <connection from="-101609498#4" to="101609498#4" fromLane="0" toLane="0"/>

    <connection from="-101609498#5" to="336863927#0" fromLane="0" toLane="0"/>
    <connection from="-101609498#5" to="-101609498#4" fromLane="0" toLane="0"/>
    <connection from="-101609498#5" to="101609498#5" fromLane="0" toLane="0"/>

    <connection from="-101611066" to="101611062#1" fromLane="0" toLane="0"/>
    <connection from="-101611066" to="101611066" fromLane="0" toLane="0"/>

    <connection from="-101611597#0" to="101611597#0" fromLane="0" toLane="0"/>

    <connection from="-101611597#1" to="-101611597#0" fromLane="0" toLane="0"/>
    <connection from="-101611597#1" to="101611600" fromLane="0" toLane="0"/>
    <connection from="-101611597#1" to="101611597#1" fromLane="0" toLane="0"/>

    <connection from="-101611598" to="101611598" fromLane="0" toLane="0"/>

    <connection from="-101611599" to="101611599" fromLane="0" toLane="0"/>

    <connection from="-101611600" to="101611597#1" fromLane="0" toLane="0"/>
    <connection from="-101611600" to="-101611597#0" fromLane="0" toLane="0"/>
    <connection from="-101611600" to="101611600" fromLane="0" toLane="0"/>

    <connection from="-101611601" to="101611601" fromLane="0" toLane="0"/>

    <connection from="-101746498#0" to="47374680#6" fromLane="0" toLane="0"/>
    <connection from="-101746498#0" to="-47374680#5" fromLane="0" toLane="0"/>
    <connection from="-101746498#0" to="101746498#0" fromLane="0" toLane="0"/>

    <connection from="-101746498#1" to="-101746516#3" fromLane="0" toLane="0"/>
    <connection from="-101746498#1" to="-101746498#0" fromLane="0" toLane="0"/>
    <connection from="-101746498#1" to="101746498#1" fromLane="0" toLane="0"/>

    <connection from="-101746498#2" to="-101746508#1" fromLane="0" toLane="0"/>
    <connection from="-101746498#2" to="-101746498#1" fromLane="0" toLane="0"/>
    <connection from="-101746498#2" to="101746498#2" fromLane="0" toLane="0"/>

    <connection from="-101746504" to="-101746516#0" fromLane="0" toLane="0"/>
    <connection from="-101746504" to="101746516#1" fromLane="0" toLane="0"/>
    <connection from="-101746504" to="101746504" fromLane="0" toLane="0"/>

    <connection from="-101746508#0" to="101746508#0" fromLane="0" toLane="0"/>

    <connection from="-101746508#1" to="-101746508#0" fromLane="0" toLane="0"/>
    <connection from="-101746508#1" to="-101746504" fromLane="0" toLane="0"/>
    <connection from="-101746508#1" to="101746508#1" fromLane="0" toLane="0"/>

    <connection from="-101746512" to="101746512" fromLane="0" toLane="0"/>

    <connection from="-101746514" to="-101749449#0" fromLane="0" toLane="0"/>
    <connection from="-101746514" to="101749449#1" fromLane="0" toLane="0"/>
    <connection from="-101746514" to="101746514" fromLane="0" toLane="0"/>

    <connection from="-101746516#0" to="101746516#0" fromLane="0" toLane="0"/>

    <connection from="-101746516#1" to="101746504" fromLane="0" toLane="0"/>
    <connection from="-101746516#1" to="-101746516#0" fromLane="0" toLane="0"/>
    <connection from="-101746516#1" to="101746516#1" fromLane="0" toLane="0"/>

    <connection from="-101746516#2" to="-101746516#1" fromLane="0" toLane="0"/>
    <connection from="-101746516#2" to="-101746512" fromLane="0" toLane="0"/>
    <connection from="-101746516#2" to="101746516#2" fromLane="0" toLane="0"/>

    <connection from="-101746516#3" to="683316333" fromLane="0" toLane="0"/>
    <connection from="-101746516#3" to="-101746516#2" fromLane="0" toLane="0"/>

    <connection from="-101749449#0" to="101749449#0" fromLane="0" toLane="0"/>

    <connection from="-101749449#1" to="101746514" fromLane="0" toLane="0"/>
    <connection from="-101749449#1" to="-101749449#0" fromLane="0" toLane="0"/>
    <connection from="-101749449#1" to="101749449#1" fromLane="0" toLane="0"/>

    <connection from="-101749451" to="101749451" fromLane="0" toLane="0"/>

    <connection from="-101749453" to="-1006827381" fromLane="0" toLane="0"/>
    <connection from="-101749453" to="679068326#0" fromLane="0" toLane="0"/>
    <connection from="-101749453" to="101749453" fromLane="0" toLane="0"/>

    <connection from="-101749458#0" to="47374680#1" fromLane="0" toLane="0"/>
    <connection from="-101749458#0" to="-47374680#0" fromLane="0" toLane="0"/>
    <connection from="-101749458#0" to="101749458#0" fromLane="0" toLane="0"/>

    <connection from="-101749458#1" to="-101749458#0" fromLane="0" toLane="0"/>
    <connection from="-101749458#1" to="120511303" fromLane="0" toLane="0"/>
    <connection from="-101749458#1" to="101749458#1" fromLane="0" toLane="0"/>

    <connection from="-101749462" to="101749462" fromLane="0" toLane="0"/>
