<?xml version="1.0" encoding="UTF-8"?>

<!-- generated on 2025-04-08 12:37:16 by Eclipse SUMO netconvert Version 1.19.0
<configuration xmlns:xsi="http://www.w3.org/2001/XMLSchema-instance" xsi:noNamespaceSchemaLocation="http://sumo.dlr.de/xsd/netconvertConfiguration.xsd">

    <input>
        <sumo-net-file value="saint_arnoult/saint_arnoult.net.xml"/>
    </input>

    <output>
        <plain-output-prefix value="saint_arnoult/saint_arnoult"/>
    </output>

    <processing>
        <geometry.min-radius.fix.railways value="false"/>
        <geometry.max-grade.fix value="false"/>
        <offset.disable-normalization value="true"/>
        <lefthand value="0"/>
    </processing>

    <tls_building>
        <tls.ignore-internal-junction-jam value="1"/>
    </tls_building>

    <junctions>
        <no-turnarounds value="true"/>
        <junctions.corner-detail value="5"/>
        <junctions.limit-turn-speed value="5.50"/>
        <rectangular-lane-cut value="0"/>
    </junctions>

    <pedestrian>
        <walkingareas value="0"/>
    </pedestrian>

</configuration>
-->

<nodes version="1.16" xmlns:xsi="http://www.w3.org/2001/XMLSchema-instance" xsi:noNamespaceSchemaLocation="http://sumo.dlr.de/xsd/nodes_file.xsd">
    <location netOffset="-419004.84,-5377863.62" convBoundary="0.00,0.00,5456.73,5970.86" origBoundary="1.808007,48.518395,1.987549,48.602981" projParameter="+proj=utm +zone=31 +ellps=WGS84 +datum=WGS84 +units=m +no_defs"/>

    <node id="10058941" x="2443.24" y="731.53" type="priority"/>
    <node id="10058948" x="1847.39" y="454.33" type="dead_end"/>
    <node id="10182289683" x="3300.20" y="2754.63" type="priority"/>
    <node id="1034185460" x="3685.63" y="776.05" type="right_before_left"/>
    <node id="1034186179" x="1973.32" y="585.37" type="right_before_left"/>
    <node id="1034186520" x="3876.46" y="421.62" type="right_before_left"/>
    <node id="1034186813" x="3743.97" y="980.24" type="right_before_left"/>
    <node id="1034186910" x="3275.72" y="1272.56" type="priority"/>
    <node id="1034186916" x="1121.06" y="298.11" type="priority"/>
    <node id="1034186952" x="2132.44" y="753.56" type="right_before_left"/>
    <node id="1034187084" x="3732.75" y="909.93" type="right_before_left"/>
    <node id="10831842158" x="3088.03" y="2694.87" type="right_before_left"/>
    <node id="10831872423" x="3520.29" y="2819.21" type="priority"/>
    <node id="10831872438" x="3249.48" y="2734.52" type="priority"/>
    <node id="10831872439" x="3247.92" y="2740.07" type="priority"/>
    <node id="10831872482" x="3097.53" y="2832.69" type="right_before_left"/>
    <node id="10831872488" x="3480.80" y="2765.36" type="priority"/>
    <node id="10831872501" x="3448.23" y="2766.37" type="right_before_left"/>
    <node id="11047788073" x="2666.34" y="3610.84" type="right_before_left"/>
    <node id="11047788076" x="2672.40" y="3579.84" type="priority"/>
    <node id="11107612625" x="3111.98" y="2701.50" type="right_before_left"/>
    <node id="11210488310" x="3349.77" y="2762.86" type="right_before_left"/>
    <node id="11210488311" x="3378.75" y="2744.06" type="right_before_left"/>
    <node id="11210488312" x="3387.53" y="2715.21" type="priority"/>
    <node id="11210488321" x="3295.91" y="2726.49" type="right_before_left"/>
    <node id="11210488322" x="3291.04" y="2725.58" type="right_before_left"/>
    <node id="11210488326" x="3292.14" y="2703.85" type="priority"/>
    <node id="11210488327" x="3357.17" y="2737.98" type="right_before_left"/>
    <node id="11210488328" x="3366.92" y="2705.88" type="priority"/>
    <node id="11210488330" x="3410.71" y="2744.80" type="right_before_left"/>
    <node id="11210488331" x="3412.76" y="2737.37" type="priority"/>
    <node id="11210488332" x="3400.64" y="2750.42" type="right_before_left"/>
    <node id="11210488333" x="3404.64" y="2735.90" type="priority"/>
    <node id="11210488334" x="3394.93" y="2771.15" type="priority" fringe="inner">
        <param key="buffer_stop" value="true"/>
    </node>
    <node id="11210488335" x="3408.53" y="2752.71" type="right_before_left"/>
    <node id="11210488336" x="3402.76" y="2773.55" type="priority" fringe="inner">
        <param key="buffer_stop" value="true"/>
    </node>
    <node id="11210490437" x="3416.36" y="2755.07" type="right_before_left"/>
    <node id="11210490438" x="3410.27" y="2775.86" type="priority" fringe="inner">
        <param key="buffer_stop" value="true"/>
    </node>
    <node id="11210490439" x="3424.54" y="2757.54" type="right_before_left"/>
    <node id="11210490440" x="3418.21" y="2778.28" type="priority" fringe="inner">
        <param key="buffer_stop" value="true"/>
    </node>
    <node id="11210490441" x="3431.96" y="2759.83" type="right_before_left"/>
    <node id="11210490442" x="3425.58" y="2780.55" type="priority" fringe="inner">
        <param key="buffer_stop" value="true"/>
    </node>
    <node id="11210490443" x="3433.28" y="2782.90" type="priority" fringe="inner">
        <param key="buffer_stop" value="true"/>
    </node>
    <node id="11210490446" x="3285.82" y="2724.57" type="priority"/>
    <node id="11210490448" x="3279.76" y="2723.32" type="priority"/>
    <node id="11304742676" x="3845.58" y="3271.44" type="priority"/>
    <node id="11429800736" x="949.98" y="2374.85" type="priority"/>
    <node id="11429800737" x="899.27" y="2366.62" type="priority"/>
    <node id="11429800738" x="807.82" y="2431.78" type="priority"/>
    <node id="11429800739" x="807.37" y="2377.17" type="priority"/>
    <node id="11429800740" x="804.20" y="2432.01" type="priority"/>
    <node id="11429800741" x="802.36" y="2377.99" type="priority"/>
    <node id="11429800742" x="770.89" y="2434.14" type="priority"/>
    <node id="11429800744" x="759.59" y="2345.10" type="priority"/>
    <node id="11429800745" x="749.17" y="2435.53" type="priority"/>
    <node id="11429800747" x="742.06" y="2379.62" type="priority"/>
    <node id="1161457643" x="2560.02" y="3691.15" type="priority"/>
    <node id="1161457661" x="3030.67" y="2952.15" type="priority"/>
    <node id="1161457663" x="2597.14" y="3720.21" type="priority"/>
    <node id="1161457688" x="2574.12" y="3719.29" type="priority"/>
    <node id="1161457690" x="2575.46" y="3731.75" type="priority"/>
    <node id="1161457723" x="3031.93" y="2942.23" type="priority"/>
    <node id="1161457753" x="2565.44" y="3713.03" type="priority"/>
    <node id="1161457771" x="3021.86" y="2993.89" type="priority"/>
    <node id="1161457798" x="2550.88" y="3735.83" type="priority"/>
    <node id="1161457811" x="2550.09" y="3718.99" type="priority"/>
    <node id="1161457814" x="2564.77" y="3740.87" type="priority"/>
    <node id="1161512966" x="2745.14" y="2814.14" type="priority"/>
    <node id="1161512972" x="2733.91" y="2828.90" type="priority"/>
    <node id="1161513024" x="2716.65" y="2827.15" type="priority"/>
    <node id="1161513026" x="2732.18" y="2815.11" type="priority"/>
    <node id="1161513030" x="2720.13" y="2831.24" type="priority"/>
    <node id="1161513032" x="2735.46" y="2825.82" type="priority"/>
    <node id="1161513052" x="2717.79" y="2816.79" type="priority"/>
    <node id="1161513056" x="2728.30" y="2813.16" type="priority"/>
    <node id="1161637896" x="1735.36" y="2341.10" type="priority"/>
    <node id="1161680825" x="2719.39" y="2799.55" type="priority"/>
    <node id="1161680870" x="2263.24" y="2549.92" type="priority"/>
    <node id="1161680892" x="2449.70" y="2622.98" type="priority"/>
    <node id="1161680941" x="1998.51" y="2315.06" type="priority"/>
    <node id="1161680943" x="2134.23" y="2409.43" type="priority"/>
    <node id="1162051787" x="2683.44" y="3121.34" type="right_before_left"/>
    <node id="1162051790" x="2756.39" y="2669.03" type="right_before_left"/>
    <node id="1162051794" x="2939.61" y="3141.03" type="right_before_left"/>
    <node id="1162051803" x="2756.48" y="3133.34" type="priority"/>
    <node id="1162051805" x="2730.97" y="2751.20" type="priority"/>
    <node id="1162051812" x="3044.86" y="3139.24" type="priority"/>
    <node id="1171034241" x="2763.49" y="2248.32" type="priority"/>
    <node id="1171034263" x="3623.72" y="2339.07" type="priority"/>
    <node id="1171034314" x="2670.10" y="2390.43" type="priority"/>
    <node id="1171034321" x="2846.06" y="2418.72" type="priority"/>
    <node id="1171034423" x="2914.45" y="2282.27" type="priority"/>
    <node id="1171034464" x="2915.34" y="2270.84" type="priority"/>
    <node id="1171034472" x="2548.31" y="2204.73" type="right_before_left"/>
    <node id="1171034499" x="2597.73" y="2379.07" type="priority"/>
    <node id="1171034567" x="3819.25" y="2355.52" type="priority"/>
    <node id="1171034584" x="4402.28" y="2288.86" type="priority"/>
    <node id="1171034606" x="4173.91" y="2354.96" type="priority"/>
    <node id="1171046106" x="3423.43" y="2724.62" type="right_before_left"/>
    <node id="1171046121" x="3521.82" y="2811.11" type="traffic_light" tl="1171046121"/>
    <node id="1171046127" x="3367.73" y="2671.97" type="priority"/>
    <node id="1171046135" x="3493.49" y="2773.50" type="priority"/>
    <node id="1171052110" x="2274.54" y="1752.31" type="priority"/>
    <node id="1171052112" x="2353.24" y="2004.80" type="priority"/>
    <node id="1171052140" x="2570.02" y="1536.72" type="priority"/>
    <node id="1171052186" x="2553.38" y="2040.33" type="priority"/>
    <node id="1171052198" x="3363.90" y="2501.07" type="priority"/>
    <node id="1171052248" x="3325.66" y="2641.81" type="priority"/>
    <node id="1171060026" x="3469.52" y="2570.66" type="priority"/>
    <node id="1171060031" x="3443.06" y="2664.86" type="priority"/>
    <node id="1171060052" x="3344.57" y="2573.48" type="priority"/>
    <node id="1171060060" x="3457.98" y="2605.05" type="priority"/>
    <node id="1171068836" x="3523.52" y="2603.74" type="priority"/>
    <node id="1171084086" x="2749.43" y="2515.05" type="priority"/>
    <node id="1171084088" x="2818.43" y="2413.33" type="priority"/>
    <node id="1171084095" x="2737.15" y="2401.39" type="priority"/>
    <node id="1171084196" x="2583.23" y="2628.57" type="priority"/>
    <node id="1171084201" x="2798.59" y="2517.17" type="right_before_left"/>
    <node id="1171084202" x="2757.51" y="2509.04" type="right_before_left"/>
    <node id="1171084234" x="2801.30" y="2504.75" type="priority"/>
    <node id="1171084257" x="2120.42" y="2344.54" type="priority"/>
    <node id="1171084275" x="2914.20" y="2478.36" type="priority"/>
    <node id="1171084293" x="2721.92" y="2501.65" type="priority"/>
    <node id="1171084338" x="2590.91" y="2632.25" type="priority"/>
    <node id="1171084344" x="2485.77" y="2580.90" type="priority"/>
    <node id="1171084380" x="2437.54" y="2616.93" type="priority"/>
    <node id="1171084432" x="2614.68" y="2647.97" type="priority"/>
    <node id="1171084434" x="2751.43" y="2686.57" type="right_before_left"/>
    <node id="1172926168" x="3530.71" y="2822.22" type="priority"/>
    <node id="1172926171" x="3560.21" y="2895.18" type="priority"/>
    <node id="1172926188" x="3381.68" y="3127.32" type="right_before_left"/>
    <node id="1172926202" x="3443.59" y="2918.77" type="priority"/>
    <node id="1172926211" x="2965.20" y="2772.24" type="priority"/>
    <node id="1172926229" x="3504.88" y="2842.63" type="right_before_left"/>
    <node id="1172926232" x="3455.47" y="2939.64" type="priority"/>
    <node id="1172926236" x="2905.01" y="2835.34" type="priority"/>
    <node id="1172926241" x="3544.58" y="2949.64" type="right_before_left"/>
    <node id="1172926247" x="2843.22" y="2735.27" type="priority"/>
    <node id="1172926250" x="2977.51" y="2917.87" type="priority"/>
    <node id="1172926255" x="3507.37" y="2815.50" type="priority"/>
    <node id="1172926257" x="3475.29" y="2927.95" type="priority"/>
    <node id="1172926260" x="3411.18" y="3087.29" type="right_before_left"/>
    <node id="1172949591" x="2432.14" y="3550.38" type="priority"/>
    <node id="1172949633" x="2688.98" y="3596.72" type="priority"/>
    <node id="1172949639" x="2581.15" y="3610.34" type="priority"/>
    <node id="1172949652" x="3368.32" y="2896.97" type="priority"/>
    <node id="1172949655" x="2592.81" y="3562.07" type="priority"/>
    <node id="1172949659" x="2831.11" y="3521.06" type="priority"/>
    <node id="1172949672" x="2696.98" y="3587.68" type="priority"/>
    <node id="1172949680" x="2680.04" y="3581.93" type="priority"/>
    <node id="1172966009" x="2729.84" y="3352.51" type="right_before_left"/>
    <node id="1172966013" x="3059.69" y="3333.09" type="priority"/>
    <node id="1172985047" x="3000.65" y="3331.77" type="priority"/>
    <node id="1172985063" x="2907.79" y="3435.86" type="priority"/>
    <node id="1172985067" x="2883.29" y="3267.32" type="priority"/>
    <node id="1172985083" x="2733.05" y="3298.60" type="priority"/>
    <node id="1172985090" x="3000.41" y="3282.02" type="priority"/>
    <node id="1172985093" x="2981.43" y="3424.57" type="priority"/>
    <node id="1172985096" x="2910.67" y="3328.50" type="priority"/>
    <node id="1172985101" x="2514.64" y="3308.35" type="priority"/>
    <node id="1172985102" x="2882.70" y="3330.29" type="priority"/>
    <node id="1172985104" x="3009.76" y="3263.99" type="priority"/>
    <node id="1172993700" x="2572.08" y="2945.65" type="priority"/>
    <node id="1172993711" x="2688.18" y="3082.39" type="right_before_left"/>
    <node id="1172993712" x="2545.58" y="2986.73" type="priority"/>
    <node id="1172993753" x="2462.26" y="2971.52" type="priority"/>
    <node id="1172993756" x="2700.10" y="2991.35" type="priority"/>
    <node id="1172993763" x="2458.81" y="3065.47" type="priority"/>
    <node id="1173023737" x="2793.67" y="3082.72" type="priority"/>
    <node id="1173023750" x="2870.54" y="3032.81" type="priority"/>
    <node id="1173023769" x="2852.79" y="2947.50" type="priority"/>
    <node id="1173023772" x="2858.72" y="3036.22" type="priority"/>
    <node id="1173023796" x="2725.45" y="3055.37" type="priority"/>
    <node id="1173023799" x="2718.46" y="2845.49" type="priority"/>
    <node id="1173023803" x="2815.72" y="3003.10" type="priority"/>
    <node id="1173023819" x="2803.66" y="3004.45" type="priority"/>
    <node id="1173023822" x="2692.47" y="3050.28" type="priority"/>
    <node id="1173023823" x="2798.08" y="2838.56" type="priority"/>
    <node id="1173023825" x="2793.25" y="2996.11" type="priority"/>
    <node id="1173023842" x="2719.22" y="3108.21" type="priority"/>
    <node id="1173023845" x="2848.72" y="3028.98" type="priority"/>
    <node id="1173023849" x="2732.14" y="2998.54" type="priority"/>
    <node id="1173023875" x="2702.16" y="2833.61" type="priority"/>
    <node id="1173027844" x="2635.80" y="2749.02" type="priority"/>
    <node id="1173027927" x="2497.90" y="2657.12" type="priority"/>
    <node id="1173042905" x="2354.13" y="2667.60" type="priority"/>
    <node id="1173042914" x="2210.69" y="2740.63" type="priority"/>
    <node id="1173042949" x="2218.78" y="2681.72" type="priority"/>
    <node id="1173042983" x="2334.30" y="2947.95" type="priority"/>
    <node id="1173042988" x="2221.83" y="2705.28" type="priority"/>
    <node id="1173043012" x="2370.72" y="2913.40" type="priority"/>
    <node id="1173043020" x="2388.88" y="2790.18" type="priority"/>
    <node id="1173043021" x="2236.39" y="2616.10" type="priority"/>
    <node id="1173043030" x="2442.15" y="2848.68" type="priority"/>
    <node id="1173043032" x="2345.32" y="2902.95" type="priority"/>
    <node id="1173049282" x="2092.38" y="2615.03" type="priority"/>
    <node id="1173049296" x="2135.93" y="2634.48" type="priority"/>
    <node id="1173049308" x="2085.38" y="2701.74" type="priority"/>
    <node id="1173049311" x="2125.98" y="2541.05" type="priority"/>
    <node id="1173049317" x="2139.73" y="2631.13" type="priority"/>
    <node id="1173060679" x="3318.71" y="3163.43" type="right_before_left"/>
    <node id="1173060683" x="3068.38" y="3211.31" type="priority"/>
    <node id="1173060688" x="3211.17" y="3181.89" type="right_before_left"/>
    <node id="1173060722" x="3222.96" y="3119.19" type="priority"/>
    <node id="1173060728" x="3429.23" y="3204.36" type="priority"/>
    <node id="1173060750" x="3164.79" y="3190.83" type="right_before_left"/>
    <node id="1173079957" x="3114.55" y="3275.96" type="priority"/>
    <node id="1173079961" x="3431.35" y="3281.17" type="priority"/>
    <node id="1173079964" x="3077.88" y="3278.66" type="priority"/>
    <node id="1173080036" x="3221.46" y="3323.34" type="priority"/>
    <node id="1173080038" x="3304.02" y="3281.15" type="priority"/>
    <node id="1173080042" x="3300.39" y="3304.37" type="priority"/>
    <node id="1173080077" x="3264.91" y="3256.59" type="right_before_left"/>
    <node id="1173080080" x="3334.09" y="3292.38" type="right_before_left"/>
    <node id="1173080084" x="3413.67" y="3235.53" type="right_before_left"/>
    <node id="1173100571" x="3382.48" y="3365.95" type="right_before_left"/>
    <node id="1173100607" x="3419.84" y="3416.29" type="right_before_left"/>
    <node id="1173100644" x="3368.55" y="3291.45" type="right_before_left"/>
    <node id="1173100648" x="3215.40" y="3403.18" type="right_before_left"/>
    <node id="1173100675" x="3235.62" y="3394.03" type="priority"/>
    <node id="1173100704" x="3229.28" y="3495.07" type="right_before_left"/>
    <node id="1173104954" x="3061.35" y="3580.93" type="priority"/>
    <node id="1173104957" x="3265.20" y="3501.74" type="right_before_left"/>
    <node id="1173104959" x="3117.59" y="3458.87" type="priority"/>
    <node id="1173104961" x="3247.22" y="3543.29" type="priority"/>
    <node id="1173104964" x="3084.07" y="3547.46" type="right_before_left"/>
    <node id="1173104966" x="3103.63" y="3419.14" type="priority"/>
    <node id="1173126245" x="3512.33" y="3326.37" type="priority"/>
    <node id="1173126250" x="3478.02" y="3492.91" type="priority"/>
    <node id="1173126293" x="3469.26" y="3446.09" type="right_before_left"/>
    <node id="1173126305" x="3479.91" y="3444.13" type="priority"/>
    <node id="1173126311" x="3432.96" y="3452.79" type="right_before_left"/>
    <node id="1173132972" x="3181.58" y="2894.48" type="right_before_left"/>
    <node id="1173132978" x="3228.93" y="2873.74" type="right_before_left"/>
    <node id="1173132981" x="3175.37" y="2888.48" type="right_before_left"/>
    <node id="1173133018" x="3226.94" y="2870.67" type="priority"/>
    <node id="1173138496" x="3315.75" y="3087.94" type="priority"/>
    <node id="1173138499" x="3169.92" y="3003.12" type="priority"/>
    <node id="1173138500" x="3410.67" y="2883.40" type="priority"/>
    <node id="1173138502" x="3223.83" y="3032.32" type="priority"/>
    <node id="1173138504" x="3266.47" y="2978.63" type="priority"/>
    <node id="1173138519" x="3212.60" y="2924.80" type="priority"/>
    <node id="1173138521" x="3336.67" y="3062.14" type="priority"/>
    <node id="1173138525" x="3153.36" y="2994.28" type="priority"/>
    <node id="1173138528" x="3161.10" y="2995.75" type="priority"/>
    <node id="1173138529" x="3436.81" y="2793.70" type="priority"/>
    <node id="1174753067" x="705.21" y="1193.97" type="priority"/>
    <node id="1174770038" x="2721.33" y="1771.55" type="priority"/>
    <node id="1174770041" x="2881.43" y="2076.20" type="priority"/>
    <node id="1174770044" x="2798.04" y="2048.84" type="priority"/>
    <node id="1174770056" x="2745.74" y="2245.46" type="right_before_left"/>
    <node id="1174770088" x="2719.74" y="2001.26" type="priority"/>
    <node id="1174770097" x="2814.15" y="1986.64" type="priority"/>
    <node id="1174770116" x="2836.97" y="2032.15" type="right_before_left"/>
    <node id="1174770118" x="2731.78" y="2078.44" type="right_before_left"/>
    <node id="1174770175" x="2929.68" y="1987.73" type="priority"/>
    <node id="1174787286" x="2329.67" y="2149.33" type="priority"/>
    <node id="1174787295" x="3483.30" y="2279.82" type="priority"/>
    <node id="1174787301" x="3556.62" y="2373.01" type="priority"/>
    <node id="1174787379" x="3157.18" y="2356.93" type="priority"/>
    <node id="1174787428" x="2876.76" y="2272.86" type="priority"/>
    <node id="1174787430" x="2356.84" y="1996.20" type="priority"/>
    <node id="1174787449" x="2456.36" y="1994.10" type="priority"/>
    <node id="1174787467" x="2339.34" y="2065.19" type="priority"/>
    <node id="1174787483" x="2881.56" y="2136.53" type="priority"/>
    <node id="1174787502" x="3478.45" y="2434.15" type="priority"/>
    <node id="1174787519" x="3234.27" y="2387.99" type="priority"/>
    <node id="1174787539" x="3471.58" y="2443.87" type="priority"/>
    <node id="1174807011" x="2156.73" y="1434.36" type="priority"/>
    <node id="1174807025" x="1882.06" y="2038.83" type="priority"/>
    <node id="1174807042" x="1697.45" y="2061.29" type="priority"/>
    <node id="1174807045" x="1826.94" y="2022.25" type="priority"/>
    <node id="1174807050" x="1885.12" y="2070.55" type="priority"/>
    <node id="1174807075" x="2172.00" y="1391.24" type="priority"/>
    <node id="1174807079" x="1830.45" y="2077.17" type="priority"/>
    <node id="1174807080" x="2019.41" y="2024.82" type="priority"/>
    <node id="1174807090" x="2252.17" y="1437.61" type="priority"/>
    <node id="1174807102" x="2227.18" y="1479.57" type="priority"/>
    <node id="1174807103" x="2419.94" y="1550.74" type="priority"/>
    <node id="1174816242" x="2171.26" y="1446.97" type="priority"/>
    <node id="1174816243" x="2424.02" y="1570.40" type="priority"/>
    <node id="1174816274" x="2414.34" y="1596.82" type="priority"/>
    <node id="1174816295" x="2141.05" y="1497.86" type="priority"/>
    <node id="1174816324" x="2438.11" y="1563.68" type="priority"/>
    <node id="1174816326" x="2084.87" y="1464.97" type="priority"/>
    <node id="1174876398" x="2002.60" y="1530.97" type="priority"/>
    <node id="1174876451" x="2084.76" y="1589.03" type="priority"/>
    <node id="1174876456" x="2289.96" y="1731.39" type="priority"/>
    <node id="1174876495" x="2015.47" y="1545.79" type="priority"/>
    <node id="1174876504" x="1953.78" y="1550.21" type="priority"/>
    <node id="1174895692" x="1767.82" y="1830.80" type="right_before_left"/>
    <node id="1174895726" x="1842.90" y="1851.95" type="priority"/>
    <node id="1174895762" x="1797.59" y="1815.96" type="priority"/>
    <node id="1174895797" x="2146.00" y="1701.73" type="priority"/>
    <node id="1174895832" x="1918.21" y="1670.64" type="priority"/>
    <node id="1174895853" x="1801.53" y="1831.19" type="priority"/>
    <node id="1174895895" x="1927.40" y="1864.77" type="priority"/>
    <node id="1174895898" x="2250.29" y="1698.17" type="right_before_left"/>
    <node id="1174895929" x="2154.07" y="1717.45" type="right_before_left"/>
    <node id="1174985966" x="1942.00" y="2003.65" type="priority"/>
    <node id="1174991662" x="1943.35" y="1994.08" type="right_before_left"/>
    <node id="1174991666" x="1977.63" y="1804.40" type="priority"/>
    <node id="1174991672" x="1821.02" y="1957.59" type="priority"/>
    <node id="1174991677" x="1774.57" y="1845.14" type="priority"/>
    <node id="1175009460" x="2091.17" y="1593.98" type="right_before_left"/>
    <node id="1175009463" x="2198.53" y="1987.36" type="priority"/>
    <node id="1175009466" x="2061.33" y="1628.69" type="priority"/>
    <node id="1175009475" x="2044.37" y="1695.37" type="priority"/>
    <node id="1175009488" x="2019.58" y="1742.80" type="priority"/>
    <node id="1175015955" x="1989.78" y="1639.06" type="priority"/>
    <node id="1175015969" x="2066.04" y="1683.87" type="priority"/>
    <node id="1175015992" x="2000.07" y="1830.10" type="priority"/>
    <node id="1175015999" x="2153.93" y="1861.58" type="priority"/>
    <node id="1175016009" x="2067.05" y="1803.73" type="right_before_left"/>
    <node id="1175016019" x="2051.48" y="1663.70" type="priority"/>
    <node id="1175016023" x="2073.95" y="1810.30" type="right_before_left"/>
    <node id="1175016027" x="2156.23" y="1803.91" type="priority"/>
    <node id="1178035607" x="1819.15" y="1983.75" type="priority"/>
    <node id="1178045758" x="1863.70" y="2293.45" type="priority"/>
    <node id="1178045775" x="1899.40" y="2288.29" type="priority"/>
    <node id="1178045782" x="2163.68" y="2443.16" type="priority"/>
    <node id="1178045786" x="2143.08" y="2461.44" type="priority"/>
    <node id="11982489732" x="2670.71" y="883.39" type="priority"/>
    <node id="11982489733" x="1900.47" y="491.93" type="priority"/>
    <node id="12216690089" x="1796.95" y="2337.88" type="priority"/>
    <node id="12216690090" x="1860.15" y="2333.95" type="priority"/>
    <node id="12216695771" x="5456.73" y="0.00" type="priority"/>
    <node id="12330600215" x="2815.92" y="2412.65" type="priority"/>
    <node id="1258023867" x="3610.69" y="2573.56" type="right_before_left"/>
    <node id="1258023869" x="3641.99" y="2576.59" type="right_before_left"/>
    <node id="1258023871" x="3592.05" y="2483.46" type="right_before_left"/>
    <node id="1258043040" x="1575.79" y="1963.03" type="right_before_left"/>
    <node id="1258043058" x="1069.25" y="719.64" type="priority"/>
    <node id="1258043061" x="1301.96" y="849.12" type="right_before_left"/>
    <node id="1258043073" x="1058.49" y="1324.62" type="right_before_left"/>
    <node id="1258043074" x="1626.59" y="1784.23" type="right_before_left"/>
    <node id="1258043080" x="1508.92" y="1544.02" type="right_before_left"/>
    <node id="1258043084" x="1601.69" y="842.76" type="right_before_left"/>
    <node id="1258043089" x="1399.66" y="982.70" type="right_before_left"/>
    <node id="1258043092" x="1274.80" y="1616.00" type="right_before_left"/>
    <node id="1333238917" x="1948.38" y="5415.68" type="priority"/>
    <node id="1333247327" x="3291.63" y="5083.49" type="priority"/>
    <node id="1333250596" x="2962.66" y="4182.71" type="priority"/>
    <node id="1333258214" x="3043.26" y="3379.41" type="priority"/>
    <node id="1333258218" x="2949.22" y="4183.69" type="right_before_left"/>
    <node id="1351126049" x="2784.04" y="2555.17" type="priority"/>
    <node id="1351127441" x="2856.18" y="2388.65" type="priority"/>
    <node id="1351127446" x="2321.72" y="1941.33" type="priority"/>
    <node id="1351131445" x="3037.08" y="1808.38" type="priority"/>
    <node id="1351131454" x="2963.72" y="2056.45" type="priority"/>
    <node id="1351131458" x="3127.62" y="1354.26" type="priority"/>
    <node id="1351133106" x="2954.94" y="2937.38" type="priority"/>
    <node id="1351133110" x="2967.02" y="2929.82" type="priority"/>
    <node id="1353867553" x="2158.02" y="3275.60" type="right_before_left"/>
    <node id="1353867556" x="2607.82" y="2692.65" type="priority"/>
    <node id="1353867565" x="2559.63" y="2617.09" type="right_before_left"/>
    <node id="1353867584" x="2294.88" y="3041.24" type="right_before_left"/>
    <node id="1353867586" x="2298.63" y="3045.30" type="right_before_left"/>
    <node id="1353867591" x="1945.24" y="2928.99" type="right_before_left"/>
    <node id="1353867616" x="2391.53" y="2791.33" type="priority"/>
    <node id="1353871029" x="3557.14" y="2622.29" type="priority"/>
    <node id="1353871033" x="3594.08" y="2558.05" type="right_before_left"/>
    <node id="1354644949" x="4207.74" y="2573.76" type="right_before_left"/>
    <node id="1354644986" x="4051.18" y="2562.29" type="priority"/>
    <node id="1375541899" x="2434.18" y="613.59" type="priority"/>
    <node id="1375541912" x="2149.67" y="645.93" type="right_before_left"/>
    <node id="1375541914" x="2443.30" y="643.54" type="priority"/>
    <node id="1375541915" x="2159.00" y="652.85" type="priority"/>
    <node id="1375541933" x="2241.64" y="683.17" type="right_before_left"/>
    <node id="1375541938" x="2475.04" y="685.74" type="priority"/>
    <node id="1375541950" x="2576.25" y="724.57" type="right_before_left"/>
    <node id="1375541953" x="2514.33" y="729.73" type="right_before_left"/>
    <node id="1375541956" x="2522.22" y="731.65" type="priority"/>
    <node id="1375541980" x="2599.48" y="767.90" type="dead_end"/>
    <node id="1375541983" x="2427.06" y="778.37" type="priority"/>
    <node id="1375541989" x="2671.80" y="822.85" type="right_before_left"/>
    <node id="1375541992" x="2563.54" y="826.12" type="priority"/>
    <node id="1375541996" x="2714.64" y="868.59" type="right_before_left"/>
    <node id="1375541998" x="2806.01" y="936.89" type="priority"/>
    <node id="1417343736" x="3317.24" y="1159.14" type="right_before_left"/>
    <node id="1417343739" x="3396.28" y="1222.51" type="priority"/>
    <node id="1417343743" x="3380.20" y="1144.26" type="priority"/>
    <node id="1417343744" x="3308.72" y="1253.27" type="priority"/>
    <node id="1417343746" x="3414.96" y="1191.16" type="priority"/>
    <node id="1417522302" x="4191.65" y="1492.65" type="dead_end"/>
    <node id="1417522304" x="4213.05" y="1513.99" type="priority"/>
    <node id="1417522320" x="4193.71" y="1475.56" type="dead_end"/>
    <node id="1417780681" x="2142.56" y="691.20" type="priority"/>
    <node id="1417780686" x="2165.68" y="724.76" type="priority"/>
    <node id="1449093529" x="3296.01" y="1180.08" type="priority"/>
    <node id="1449093533" x="3472.19" y="1271.62" type="priority"/>
    <node id="1473430511" x="2023.56" y="17.76" type="priority"/>
    <node id="1473452979" x="3023.80" y="2986.31" type="priority"/>
    <node id="1474529571" x="2258.41" y="501.29" type="dead_end"/>
    <node id="1474529572" x="2222.44" y="685.35" type="right_before_left"/>
    <node id="1474529573" x="2185.52" y="724.22" type="priority"/>
    <node id="1490179152" x="4135.25" y="2994.73" type="priority"/>
    <node id="1504407456" x="4066.55" y="812.17" type="priority"/>
    <node id="1504407459" x="3292.46" y="728.52" type="right_before_left"/>
    <node id="1504407461" x="2465.93" y="527.46" type="right_before_left"/>