<?xml version="1.0" encoding="UTF-8"?>

<!-- generated on 2025-04-08 15:14:29 by Eclipse SUMO netconvert Version 1.19.0
<configuration xmlns:xsi="http://www.w3.org/2001/XMLSchema-instance" xsi:noNamespaceSchemaLocation="http://sumo.dlr.de/xsd/netconvertConfiguration.xsd">

    <input>
        <sumo-net-file value="gargenville/gargenville.net.xml"/>
    </input>

    <output>
        <plain-output-prefix value="gargenville/gargenville"/>
    </output>

    <processing>
        <geometry.min-radius.fix.railways value="false"/>
        <geometry.max-grade.fix value="false"/>
        <offset.disable-normalization value="true"/>
        <lefthand value="0"/>
    </processing>

    <tls_building>
        <tls.ignore-internal-junction-jam value="1"/>
    </tls_building>

    <junctions>
        <no-turnarounds value="true"/>
        <junctions.corner-detail value="5"/>
        <junctions.limit-turn-speed value="5.50"/>
        <rectangular-lane-cut value="0"/>
    </junctions>

    <pedestrian>
        <walkingareas value="0"/>
    </pedestrian>

</configuration>
-->

<connections version="1.16" xmlns:xsi="http://www.w3.org/2001/XMLSchema-instance" xsi:noNamespaceSchemaLocation="http://sumo.dlr.de/xsd/connections_file.xsd">
    <connection from="-1010239942" to="-496438775#1" fromLane="0" toLane="0"/>
    <connection from="-1010239942" to="496438775#2" fromLane="0" toLane="0"/>
    <connection from="-1010239942" to="1010239942" fromLane="0" toLane="0"/>

    <connection from="-1012848295" to="-722263988#3" fromLane="0" toLane="0"/>
    <connection from="-1012848295" to="722263988#4" fromLane="0" toLane="0"/>
    <connection from="-1012848295" to="-45451358#9" fromLane="0" toLane="0"/>
    <connection from="-1012848295" to="1012848295" fromLane="0" toLane="0"/>

    <connection from="-1012848296#0" to="1012848296#0" fromLane="0" toLane="0"/>

    <connection from="-1012848296#1" to="-1012848296#0" fromLane="0" toLane="0"/>
    <connection from="-1012848296#1" to="1012848296#1" fromLane="0" toLane="0"/>

    <connection from="-1012848297" to="-45451373#3" fromLane="0" toLane="0"/>
    <connection from="-1012848297" to="45451373#4" fromLane="0" toLane="0"/>
    <connection from="-1012848297" to="1012848297" fromLane="0" toLane="0"/>

    <connection from="-1013816282" to="88410609#1" fromLane="0" toLane="0"/>
    <connection from="-1013816282" to="1013816282" fromLane="0" toLane="0"/>

    <connection from="-1014618771" to="129604327#1" fromLane="0" toLane="0"/>
    <connection from="-1014618771" to="-129604327#0" fromLane="0" toLane="0"/>
    <connection from="-1014618771" to="1014618771" fromLane="0" toLane="0"/>

    <connection from="-1014618779" to="61888706#0" fromLane="0" toLane="0"/>
    <connection from="-1014618779" to="1014618779" fromLane="0" toLane="0"/>

    <connection from="-1025005374#0" to="49014714#1" fromLane="0" toLane="0"/>
    <connection from="-1025005374#0" to="-49014714#0" fromLane="0" toLane="1"/>
    <connection from="-1025005374#0" to="1025005374#0" fromLane="0" toLane="0"/>

    <connection from="-1025005374#1" to="-1025005374#3" fromLane="0" toLane="0"/>
    <connection from="-1025005374#1" to="-1025005374#0" fromLane="0" toLane="0"/>
    <connection from="-1025005374#1" to="1025005374#1" fromLane="0" toLane="0"/>

    <connection from="-1025005374#2" to="-1025005375" fromLane="0" toLane="0"/>
    <connection from="-1025005374#2" to="-1025005374#1" fromLane="0" toLane="0"/>
    <connection from="-1025005374#2" to="1025005374#2" fromLane="0" toLane="0"/>

    <connection from="-1025005374#3" to="1025005375" fromLane="0" toLane="0"/>
    <connection from="-1025005374#3" to="-1025005374#2" fromLane="0" toLane="0"/>
    <connection from="-1025005374#3" to="1025005374#3" fromLane="0" toLane="0"/>

    <connection from="-1025005375" to="-1025005374#2" fromLane="0" toLane="0"/>
    <connection from="-1025005375" to="1025005374#3" fromLane="0" toLane="0"/>
    <connection from="-1025005375" to="1025005375" fromLane="0" toLane="0"/>

    <connection from="-1025005376" to="-105156570#2" fromLane="0" toLane="0"/>
    <connection from="-1025005376" to="105156570#3" fromLane="0" toLane="0"/>
    <connection from="-1025005376" to="1025005376" fromLane="0" toLane="0"/>

    <connection from="-1027205944" to="88410630#4" fromLane="0" toLane="0"/>
    <connection from="-1027205944" to="1027205944" fromLane="0" toLane="0"/>

    <connection from="-1027205945#0" to="-560456674#0" fromLane="0" toLane="0"/>
    <connection from="-1027205945#0" to="560456674#1" fromLane="0" toLane="0"/>
    <connection from="-1027205945#0" to="1276794232" fromLane="0" toLane="0"/>

    <connection from="-1027205945#1" to="-1027205945#0" fromLane="0" toLane="0"/>
    <connection from="-1027205945#1" to="1276794233" fromLane="0" toLane="0"/>
    <connection from="-1027205945#1" to="1027205945#1" fromLane="0" toLane="0"/>

    <connection from="-1027205945#2" to="-1027205945#1" fromLane="0" toLane="0"/>
    <connection from="-1027205945#2" to="1027205946" fromLane="0" toLane="0"/>
    <connection from="-1027205945#2" to="1027205945#2" fromLane="0" toLane="0"/>

    <connection from="-1027205946" to="1027205945#2" fromLane="0" toLane="0"/>
    <connection from="-1027205946" to="-1027205945#1" fromLane="0" toLane="0"/>
    <connection from="-1027205946" to="1027205946" fromLane="0" toLane="0"/>

    <connection from="-1027205947" to="45237546#0" fromLane="0" toLane="0" keepClear="0"/>

    <connection from="-1027206546" to="61888714#2" fromLane="0" toLane="0"/>
    <connection from="-1027206546" to="-61888714#1" fromLane="0" toLane="0"/>
    <connection from="-1027206546" to="1027206546" fromLane="0" toLane="0"/>

    <connection from="-1028738461" to="57720178#0" fromLane="0" toLane="0"/>
    <connection from="-1028738461" to="1028738461" fromLane="0" toLane="0"/>

    <connection from="-1035768264" to="560467961" fromLane="0" toLane="0"/>
    <connection from="-1035768264" to="-560467962" fromLane="0" toLane="0"/>
    <connection from="-1035768264" to="1035768264" fromLane="0" toLane="0"/>

    <connection from="-1035768269#0" to="-560464848#0" fromLane="0" toLane="0"/>
    <connection from="-1035768269#0" to="560464848#1" fromLane="0" toLane="1"/>
    <connection from="-1035768269#0" to="1035768269#0" fromLane="0" toLane="0"/>

    <connection from="-1035768271" to="-51819624#1" fromLane="0" toLane="0"/>
    <connection from="-1035768271" to="-51819650#1" fromLane="0" toLane="0"/>
    <connection from="-1035768271" to="1035768271" fromLane="0" toLane="0"/>

    <connection from="-1035768272#0" to="1035768272#0" fromLane="0" toLane="0"/>

    <connection from="-1035768272#1" to="51819624#0" fromLane="0" toLane="0"/>
    <connection from="-1035768272#1" to="-1035768272#0" fromLane="0" toLane="0"/>
    <connection from="-1035768272#1" to="1035768272#1" fromLane="0" toLane="0"/>

    <connection from="-1035834385#0" to="51819645#0" fromLane="0" toLane="0"/>
    <connection from="-1035834385#0" to="-51819620#3" fromLane="0" toLane="0"/>
    <connection from="-1035834385#0" to="1035834385#0" fromLane="0" toLane="0"/>

    <connection from="-1035834385#1" to="941060899" fromLane="0" toLane="0"/>
    <connection from="-1035834385#1" to="-1035834385#0" fromLane="0" toLane="0"/>
    <connection from="-1035834385#1" to="-1308626834#3" fromLane="0" toLane="0"/>

    <connection from="-1035834388" to="51819645#3" fromLane="0" toLane="0"/>
    <connection from="-1035834388" to="-51819645#2" fromLane="0" toLane="0"/>
    <connection from="-1035834388" to="1035834387" fromLane="0" toLane="0"/>

    <connection from="-1035834389" to="-51819622#2" fromLane="0" toLane="0"/>
    <connection from="-1035834389" to="-51819648" fromLane="0" toLane="0"/>
    <connection from="-1035834389" to="51819622#3" fromLane="0" toLane="0"/>
    <connection from="-1035834389" to="1035834389" fromLane="0" toLane="0"/>

    <connection from="-1037626503" to="57774105#1" fromLane="0" toLane="0"/>
    <connection from="-1037626503" to="1037626503" fromLane="0" toLane="0"/>

    <connection from="-1039998121" to="30890426#2" fromLane="0" toLane="0"/>
    <connection from="-1039998121" to="1039998121" fromLane="0" toLane="0"/>

    <connection from="-1039998127#0" to="118222020#2" fromLane="0" toLane="0"/>
    <connection from="-1039998127#0" to="1039998127#0" fromLane="0" toLane="0"/>

    <connection from="-1039998127#1" to="-1039998127#0" fromLane="0" toLane="0"/>
    <connection from="-1039998127#1" to="1039998127#1" fromLane="0" toLane="0"/>

    <connection from="-1039998128#0" to="-1039998127#1" fromLane="0" toLane="0"/>
    <connection from="-1039998128#0" to="-118221888#3" fromLane="0" toLane="0"/>
    <connection from="-1039998128#0" to="1039998129" fromLane="0" toLane="0"/>
    <connection from="-1039998128#0" to="1039998128#0" fromLane="0" toLane="0"/>

    <connection from="-1039998128#1" to="-1039998128#0" fromLane="0" toLane="0"/>
    <connection from="-1039998128#1" to="-118221944" fromLane="0" toLane="0"/>
    <connection from="-1039998128#1" to="1039998128#1" fromLane="0" toLane="0"/>

    <connection from="-1039998128#2" to="-1039998128#1" fromLane="0" toLane="0"/>
    <connection from="-1039998128#2" to="-118221915" fromLane="0" toLane="0"/>
    <connection from="-1039998128#2" to="1039998128#2" fromLane="0" toLane="0"/>

    <connection from="-1039998128#3" to="-1039998128#2" fromLane="0" toLane="0"/>
    <connection from="-1039998128#3" to="-118222023#2" fromLane="0" toLane="0"/>
    <connection from="-1039998128#3" to="1039998128#3" fromLane="0" toLane="0"/>

    <connection from="-104290264" to="286606901#3" fromLane="0" toLane="0"/>
    <connection from="-104290264" to="-286606901#2" fromLane="0" toLane="0"/>
    <connection from="-104290264" to="104290264" fromLane="0" toLane="0"/>

    <connection from="-104290265#0" to="104290265#0" fromLane="0" toLane="0"/>

    <connection from="-104290265#1" to="104290296#0" fromLane="0" toLane="0"/>
    <connection from="-104290265#1" to="-104290265#0" fromLane="0" toLane="0"/>
    <connection from="-104290265#1" to="-104290267#3" fromLane="0" toLane="0"/>
    <connection from="-104290265#1" to="104290265#1" fromLane="0" toLane="0"/>

    <connection from="-104290266#0" to="-1154386245" fromLane="0" toLane="0"/>
    <connection from="-104290266#0" to="104290276#0" fromLane="0" toLane="0"/>
    <connection from="-104290266#0" to="104290266#0" fromLane="0" toLane="0"/>

    <connection from="-104290266#1" to="105142738" fromLane="0" toLane="0"/>
    <connection from="-104290266#1" to="-104290266#0" fromLane="0" toLane="0"/>
    <connection from="-104290266#1" to="104290266#1" fromLane="0" toLane="0"/>

    <connection from="-104290267#0" to="-916007404" fromLane="0" toLane="0"/>
    <connection from="-104290267#0" to="104290267#0" fromLane="0" toLane="0"/>

    <connection from="-104290267#1" to="105142727#0" fromLane="0" toLane="0"/>
    <connection from="-104290267#1" to="-104290267#0" fromLane="0" toLane="0"/>
    <connection from="-104290267#1" to="104290267#1" fromLane="0" toLane="0"/>

    <connection from="-104290267#2" to="105783596" fromLane="0" toLane="0"/>
    <connection from="-104290267#2" to="-104290267#1" fromLane="0" toLane="0"/>
    <connection from="-104290267#2" to="104290267#2" fromLane="0" toLane="0"/>

    <connection from="-104290267#3" to="-104290267#2" fromLane="0" toLane="0"/>
    <connection from="-104290267#3" to="105783609" fromLane="0" toLane="0"/>
    <connection from="-104290267#3" to="104290267#3" fromLane="0" toLane="0"/>

    <connection from="-104290269#0" to="105142734#1" fromLane="0" toLane="0"/>
    <connection from="-104290269#0" to="-105142734#0" fromLane="0" toLane="0"/>
    <connection from="-104290269#0" to="104290269#0" fromLane="0" toLane="0"/>

    <connection from="-104290269#1" to="-104290269#0" fromLane="0" toLane="0"/>

    <connection from="-104290269#2" to="-104290269#1" fromLane="0" toLane="0"/>

    <connection from="-104290269#3" to="-104290269#2" fromLane="0" toLane="0"/>
    <connection from="-104290269#3" to="104290286" fromLane="0" toLane="0"/>
    <connection from="-104290269#3" to="104290269#3" fromLane="0" toLane="0"/>

    <connection from="-104290270#0" to="104290292#2" fromLane="0" toLane="0" visibility="9.00"/>

    <connection from="-104290270#1" to="-104290270#0" fromLane="0" toLane="0"/>

    <connection from="-104290271#0" to="-104290279#9" fromLane="0" toLane="0"/>
    <connection from="-104290271#0" to="104290279#10" fromLane="0" toLane="0"/>
    <connection from="-104290271#0" to="104290271#0" fromLane="0" toLane="0"/>

    <connection from="-104290271#1" to="-105783608#1" fromLane="0" toLane="0"/>
    <connection from="-104290271#1" to="-104290271#0" fromLane="0" toLane="0"/>
    <connection from="-104290271#1" to="105783608#2" fromLane="0" toLane="0"/>
    <connection from="-104290271#1" to="104290271#1" fromLane="0" toLane="0"/>

    <connection from="-104290272" to="-104290279#10" fromLane="0" toLane="0"/>
    <connection from="-104290272" to="104290279#11" fromLane="0" toLane="0"/>
    <connection from="-104290272" to="104290272" fromLane="0" toLane="0"/>

    <connection from="-104290274#0" to="104290278#4" fromLane="0" toLane="0" visibility="9.00"/>

    <connection from="-104290274#1" to="-104290285#0" fromLane="0" toLane="0"/>
    <connection from="-104290274#1" to="-104290274#0" fromLane="0" toLane="0"/>
    <connection from="-104290274#1" to="104290285#1" fromLane="0" toLane="0"/>
    <connection from="-104290274#1" to="104290274#1" fromLane="0" toLane="0"/>

    <connection from="-104290276#0" to="104290266#0" fromLane="0" toLane="0"/>
    <connection from="-104290276#0" to="-1154386245" fromLane="0" toLane="0"/>
    <connection from="-104290276#0" to="104290276#0" fromLane="0" toLane="0"/>

    <connection from="-104290276#1" to="-59089568#0" fromLane="0" toLane="0"/>
    <connection from="-104290276#1" to="-104290276#0" fromLane="0" toLane="0"/>
    <connection from="-104290276#1" to="59089568#1" fromLane="0" toLane="0"/>
    <connection from="-104290276#1" to="104290276#1" fromLane="0" toLane="0"/>

    <connection from="-104290276#2" to="-104290291#0" fromLane="0" toLane="0"/>
    <connection from="-104290276#2" to="-104290276#1" fromLane="0" toLane="0"/>
    <connection from="-104290276#2" to="104290291#1" fromLane="0" toLane="0"/>
    <connection from="-104290276#2" to="104290276#2" fromLane="0" toLane="0"/>

    <connection from="-104290277" to="104290278#2" fromLane="0" toLane="0" visibility="9.00"/>

    <connection from="-104290279#0" to="-560457877" fromLane="0" toLane="0"/>

    <connection from="-104290279#1" to="-104290279#0" fromLane="0" toLane="0"/>
    <connection from="-104290279#1" to="59089568#0" fromLane="0" toLane="0"/>
    <connection from="-104290279#1" to="104290279#1" fromLane="0" toLane="0"/>

    <connection from="-104290279#10" to="104290271#0" fromLane="0" toLane="0"/>
    <connection from="-104290279#10" to="-104290279#9" fromLane="0" toLane="0"/>
    <connection from="-104290279#10" to="104290279#10" fromLane="0" toLane="0"/>

    <connection from="-104290279#11" to="104290272" fromLane="0" toLane="0"/>
    <connection from="-104290279#11" to="-104290279#10" fromLane="0" toLane="0"/>
    <connection from="-104290279#11" to="104290279#11" fromLane="0" toLane="0"/>

    <connection from="-104290279#12" to="-104290293#1" fromLane="0" toLane="0"/>
    <connection from="-104290279#12" to="-104290279#11" fromLane="0" toLane="0"/>
    <connection from="-104290279#12" to="104290279#12" fromLane="0" toLane="0"/>

    <connection from="-104290279#13" to="937819130" fromLane="0" toLane="0"/>
    <connection from="-104290279#13" to="-104290279#12" fromLane="0" toLane="0"/>
    <connection from="-104290279#13" to="104290279#13" fromLane="0" toLane="0"/>

    <connection from="-104290279#2" to="-104290279#1" fromLane="0" toLane="0"/>
    <connection from="-104290279#2" to="104290291#0" fromLane="0" toLane="0"/>
    <connection from="-104290279#2" to="104290279#2" fromLane="0" toLane="0"/>

    <connection from="-104290279#3" to="-104290265#1" fromLane="0" toLane="0"/>
    <connection from="-104290279#3" to="-104290279#2" fromLane="0" toLane="0"/>
    <connection from="-104290279#3" to="104290279#3" fromLane="0" toLane="0"/>

    <connection from="-104290279#4" to="-104290279#3" fromLane="0" toLane="0"/>
    <connection from="-104290279#4" to="-104290289" fromLane="0" toLane="0"/>
    <connection from="-104290279#4" to="104290279#4" fromLane="0" toLane="0"/>

    <connection from="-104290279#5" to="105142734#0" fromLane="0" toLane="0"/>
    <connection from="-104290279#5" to="-104290279#4" fromLane="0" toLane="0"/>
    <connection from="-104290279#5" to="104290285#0" fromLane="0" toLane="0"/>
    <connection from="-104290279#5" to="104290279#5" fromLane="0" toLane="0"/>

    <connection from="-104290279#6" to="-104290279#5" fromLane="0" toLane="0"/>

    <connection from="-104290279#7" to="105174218#0" fromLane="0" toLane="0"/>
    <connection from="-104290279#7" to="-104290279#6" fromLane="0" toLane="0"/>

    <connection from="-104290279#8" to="-104290279#7" fromLane="0" toLane="0"/>
    <connection from="-104290279#8" to="-104290274#1" fromLane="0" toLane="0"/>
    <connection from="-104290279#8" to="104290279#8" fromLane="0" toLane="0"/>

    <connection from="-104290279#9" to="104290294" fromLane="0" toLane="0"/>
    <connection from="-104290279#9" to="-104290279#8" fromLane="0" toLane="0"/>
    <connection from="-104290279#9" to="104290279#9" fromLane="0" toLane="0"/>

    <connection from="-104290280#0" to="104290278#3" fromLane="0" toLane="0" visibility="9.00"/>

    <connection from="-104290282" to="104290278#0" fromLane="0" toLane="0" visibility="9.00"/>

    <connection from="-104290283#0" to="104290295#0" fromLane="0" toLane="0"/>
    <connection from="-104290283#0" to="105142723#0" fromLane="0" toLane="0"/>

    <connection from="-104290283#1" to="916007405" fromLane="0" toLane="0"/>
    <connection from="-104290283#1" to="-104290283#0" fromLane="0" toLane="0"/>
    <connection from="-104290283#1" to="104290283#1" fromLane="0" toLane="0"/>

    <connection from="-104290285#0" to="104290279#5" fromLane="0" toLane="0"/>
    <connection from="-104290285#0" to="105142734#0" fromLane="0" toLane="0"/>
    <connection from="-104290285#0" to="-104290279#4" fromLane="0" toLane="0"/>
    <connection from="-104290285#0" to="104290285#0" fromLane="0" toLane="0"/>

    <connection from="-104290285#1" to="104290274#1" fromLane="0" toLane="0"/>
    <connection from="-104290285#1" to="-104290285#0" fromLane="0" toLane="0"/>
    <connection from="-104290285#1" to="-104290274#0" fromLane="0" toLane="0"/>
    <connection from="-104290285#1" to="104290285#1" fromLane="0" toLane="0"/>

    <connection from="-104290285#2" to="104290280#1" fromLane="0" toLane="0"/>
    <connection from="-104290285#2" to="-104290285#1" fromLane="0" toLane="0"/>
    <connection from="-104290285#2" to="-104290280#0" fromLane="0" toLane="0"/>
    <connection from="-104290285#2" to="104290285#2" fromLane="0" toLane="0"/>

    <connection from="-104290286" to="104290269#3" fromLane="0" toLane="0"/>
    <connection from="-104290286" to="-104290269#2" fromLane="0" toLane="0"/>
    <connection from="-104290286" to="104290286" fromLane="0" toLane="0"/>

    <connection from="-104290289" to="104290278#5" fromLane="0" toLane="0" visibility="9.00"/>

    <connection from="-104290290" to="104290290" fromLane="0" toLane="0"/>

    <connection from="-104290291#0" to="104290279#2" fromLane="0" toLane="0"/>
    <connection from="-104290291#0" to="-104290279#1" fromLane="0" toLane="0"/>
    <connection from="-104290291#0" to="104290291#0" fromLane="0" toLane="0"/>

    <connection from="-104290291#1" to="104290276#2" fromLane="0" toLane="0"/>
    <connection from="-104290291#1" to="-104290291#0" fromLane="0" toLane="0"/>
    <connection from="-104290291#1" to="-104290276#1" fromLane="0" toLane="0"/>
    <connection from="-104290291#1" to="104290291#1" fromLane="0" toLane="0"/>

    <connection from="-104290293#0" to="105783608#3" fromLane="0" toLane="0"/>
    <connection from="-104290293#0" to="-105783608#2" fromLane="0" toLane="0"/>
    <connection from="-104290293#0" to="104290293#0" fromLane="0" toLane="0"/>

    <connection from="-104290293#1" to="-104290293#0" fromLane="0" toLane="0"/>
    <connection from="-104290293#1" to="-104290272" fromLane="0" toLane="0"/>
    <connection from="-104290293#1" to="104290293#1" fromLane="0" toLane="0"/>

    <connection from="-104290294" to="-104290279#8" fromLane="0" toLane="0"/>
    <connection from="-104290294" to="104290279#9" fromLane="0" toLane="0"/>
    <connection from="-104290294" to="104290294" fromLane="0" toLane="0"/>

    <connection from="-104290295#0" to="105142723#0" fromLane="0" toLane="0"/>
    <connection from="-104290295#0" to="104290283#0" fromLane="0" toLane="0"/>

    <connection from="-104290295#1" to="1135882028#0" fromLane="0" toLane="0"/>
    <connection from="-104290295#1" to="-104290295#0" fromLane="0" toLane="0"/>

    <connection from="-104290296#0" to="-104290265#0" fromLane="0" toLane="0"/>
    <connection from="-104290296#0" to="-104290267#3" fromLane="0" toLane="0"/>
    <connection from="-104290296#0" to="104290265#1" fromLane="0" toLane="0"/>
    <connection from="-104290296#0" to="104290296#0" fromLane="0" toLane="0"/>

    <connection from="-104290296#1" to="-104290296#0" fromLane="0" toLane="0"/>
    <connection from="-104290296#1" to="105783611" fromLane="0" toLane="0"/>
    <connection from="-104290296#1" to="104290296#1" fromLane="0" toLane="0"/>

    <connection from="-104290296#2" to="-104290296#1" fromLane="0" toLane="0"/>
    <connection from="-104290296#2" to="-105142734#2" fromLane="0" toLane="0"/>
    <connection from="-104290296#2" to="104290296#2" fromLane="0" toLane="0"/>

    <connection from="-104290296#3" to="105142736" fromLane="0" toLane="0"/>
    <connection from="-104290296#3" to="-104290296#2" fromLane="0" toLane="0"/>
    <connection from="-104290296#3" to="104290296#3" fromLane="0" toLane="0"/>

    <connection from="-104290297" to="1154386247" fromLane="0" toLane="0"/>
    <connection from="-104290297" to="-59089568#1" fromLane="0" toLane="0"/>
    <connection from="-104290297" to="-59089567#1" fromLane="0" toLane="0"/>
    <connection from="-104290297" to="104290297" fromLane="0" toLane="0"/>

    <connection from="-104290298#0" to="104290292#3" fromLane="0" toLane="0" visibility="9.00"/>

    <connection from="-104290298#1" to="-104290298#0" fromLane="0" toLane="0"/>
    <connection from="-104290298#1" to="105142732" fromLane="0" toLane="0"/>
    <connection from="-104290298#1" to="104290298#1" fromLane="0" toLane="0"/>

    <connection from="-104290299" to="-105462319#1" fromLane="0" toLane="0"/>
    <connection from="-104290299" to="-107107406" fromLane="0" toLane="0"/>
    <connection from="-104290299" to="59089577" fromLane="0" toLane="0"/>
    <connection from="-104290299" to="104290299" fromLane="0" toLane="0"/>

    <connection from="-105142723#0" to="104290283#0" fromLane="0" toLane="0"/>
    <connection from="-105142723#0" to="104290295#0" fromLane="0" toLane="0"/>
    <connection from="-105142723#0" to="105142723#0" fromLane="0" toLane="0"/>

    <connection from="-105142723#1" to="-105142723#0" fromLane="0" toLane="0"/>
    <connection from="-105142723#1" to="107250739" fromLane="0" toLane="0"/>
    <connection from="-105142723#1" to="105142723#1" fromLane="0" toLane="0"/>

    <connection from="-105142723#2" to="-105142723#1" fromLane="0" toLane="0"/>
    <connection from="-105142723#2" to="105142723#2" fromLane="0" toLane="0"/>

    <connection from="-105142723#3" to="-105142723#2" fromLane="0" toLane="0"/>
    <connection from="-105142723#3" to="-105142723#4" fromLane="0" toLane="0"/>
    <connection from="-105142723#3" to="105142723#3" fromLane="0" toLane="0"/>

    <connection from="-105142723#4" to="-105142723#3" fromLane="0" toLane="0"/>

    <connection from="-105142724" to="-105142729#0" fromLane="0" toLane="0"/>
    <connection from="-105142724" to="105142729#1" fromLane="0" toLane="0"/>
    <connection from="-105142724" to="105142724" fromLane="0" toLane="0"/>

    <connection from="-105142727#0" to="-104290267#0" fromLane="0" toLane="0"/>
    <connection from="-105142727#0" to="104290267#1" fromLane="0" toLane="0"/>
    <connection from="-105142727#0" to="105142727#0" fromLane="0" toLane="0"/>

    <connection from="-105142727#1" to="-105142727#0" fromLane="0" toLane="0"/>
    <connection from="-105142727#1" to="-105142727#2" fromLane="0" toLane="0"/>
    <connection from="-105142727#1" to="105142727#1" fromLane="0" toLane="0"/>

    <connection from="-105142727#2" to="105142735" fromLane="0" toLane="0"/>
    <connection from="-105142727#2" to="-105142727#1" fromLane="0" toLane="0"/>
    <connection from="-105142727#2" to="105142727#2" fromLane="0" toLane="0"/>

    <connection from="-105142729#0" to="-104290296#3" fromLane="0" toLane="0"/>
    <connection from="-105142729#0" to="-104290269#3" fromLane="0" toLane="0"/>
    <connection from="-105142729#0" to="105142729#0" fromLane="0" toLane="0"/>

    <connection from="-105142729#1" to="105142724" fromLane="0" toLane="0"/>
    <connection from="-105142729#1" to="-105142729#0" fromLane="0" toLane="0"/>
    <connection from="-105142729#1" to="105142729#1" fromLane="0" toLane="0"/>

    <connection from="-105142732" to="104290298#1" fromLane="0" toLane="0"/>
    <connection from="-105142732" to="-104290298#0" fromLane="0" toLane="0"/>
    <connection from="-105142732" to="105142732" fromLane="0" toLane="0"/>

    <connection from="-105142734#0" to="-104290279#4" fromLane="0" toLane="0"/>
    <connection from="-105142734#0" to="104290285#0" fromLane="0" toLane="0"/>
    <connection from="-105142734#0" to="104290279#5" fromLane="0" toLane="0"/>
    <connection from="-105142734#0" to="105142734#0" fromLane="0" toLane="0"/>

    <connection from="-105142734#1" to="-105142734#0" fromLane="0" toLane="0"/>
    <connection from="-105142734#1" to="104290269#0" fromLane="0" toLane="0"/>
    <connection from="-105142734#1" to="105142734#1" fromLane="0" toLane="0"/>

    <connection from="-105142734#2" to="-105783611" fromLane="0" toLane="0"/>
    <connection from="-105142734#2" to="-105142734#1" fromLane="0" toLane="0"/>
    <connection from="-105142734#2" to="105142734#2" fromLane="0" toLane="0"/>

    <connection from="-105142735" to="-105142727#1" fromLane="0" toLane="0"/>
    <connection from="-105142735" to="105142727#2" fromLane="0" toLane="0"/>
    <connection from="-105142735" to="105142735" fromLane="0" toLane="0"/>

    <connection from="-105142736" to="-104290296#2" fromLane="0" toLane="0"/>
    <connection from="-105142736" to="104290296#3" fromLane="0" toLane="0"/>
    <connection from="-105142736" to="105142736" fromLane="0" toLane="0"/>

    <connection from="-105142738" to="-104290266#0" fromLane="0" toLane="0"/>
    <connection from="-105142738" to="104290266#1" fromLane="0" toLane="0"/>
    <connection from="-105142738" to="105142738" fromLane="0" toLane="0"/>

    <connection from="-105156550" to="-105156574#0" fromLane="0" toLane="0"/>
    <connection from="-105156550" to="105156574#1" fromLane="0" toLane="0"/>
    <connection from="-105156550" to="105156550" fromLane="0" toLane="0"/>

    <connection from="-105156554" to="105156557#3" fromLane="0" toLane="0"/>
    <connection from="-105156554" to="-105156557#2" fromLane="0" toLane="0"/>
    <connection from="-105156554" to="105156554" fromLane="0" toLane="0"/>

    <connection from="-105156555" to="105156557#1" fromLane="0" toLane="0"/>
    <connection from="-105156555" to="-105156557#0" fromLane="0" toLane="0"/>
    <connection from="-105156555" to="105156555" fromLane="0" toLane="0"/>

    <connection from="-105156557#0" to="-105156566#3" fromLane="0" toLane="0"/>
    <connection from="-105156557#0" to="560467954" fromLane="0" toLane="0"/>
    <connection from="-105156557#0" to="105156557#0" fromLane="0" toLane="0"/>

    <connection from="-105156557#1" to="-105156557#0" fromLane="0" toLane="0"/>
    <connection from="-105156557#1" to="105156555" fromLane="0" toLane="0"/>
    <connection from="-105156557#1" to="105156557#1" fromLane="0" toLane="0"/>

    <connection from="-105156557#2" to="106887219#0" fromLane="0" toLane="0"/>
    <connection from="-105156557#2" to="-105156557#1" fromLane="0" toLane="0"/>
    <connection from="-105156557#2" to="105156557#2" fromLane="0" toLane="0"/>

    <connection from="-105156557#3" to="-105156557#2" fromLane="0" toLane="0"/>
    <connection from="-105156557#3" to="105156554" fromLane="0" toLane="0"/>
    <connection from="-105156557#3" to="105156557#3" fromLane="0" toLane="0"/>

    <connection from="-105156559" to="497195483#0" fromLane="0" toLane="0"/>
    <connection from="-105156559" to="-105156557#3" fromLane="0" toLane="0"/>
    <connection from="-105156559" to="105156559" fromLane="0" toLane="0"/>

    <connection from="-105156564#0" to="105156553#1" fromLane="0" toLane="0"/>
    <connection from="-105156564#0" to="105156564#0" fromLane="0" toLane="0"/>

    <connection from="-105156564#1" to="-105156564#0" fromLane="0" toLane="0"/>
    <connection from="-105156564#1" to="-951528788" fromLane="0" toLane="0"/>
    <connection from="-105156564#1" to="105156564#1" fromLane="0" toLane="0"/>

    <connection from="-105156564#2" to="-105156564#1" fromLane="0" toLane="0"/>

    <connection from="-105156565#0" to="105156566#1" fromLane="0" toLane="0"/>
    <connection from="-105156565#0" to="-105156566#0" fromLane="0" toLane="0"/>
    <connection from="-105156565#0" to="105156565#0" fromLane="0" toLane="0"/>

    <connection from="-105156565#1" to="-105156565#0" fromLane="0" toLane="0"/>
    <connection from="-105156565#1" to="116803450" fromLane="0" toLane="0"/>