<?xml version="1.0" encoding="UTF-8"?>

<!-- generated on 2025-04-08 15:14:29 by Eclipse SUMO netconvert Version 1.19.0
<configuration xmlns:xsi="http://www.w3.org/2001/XMLSchema-instance" xsi:noNamespaceSchemaLocation="http://sumo.dlr.de/xsd/netconvertConfiguration.xsd">

    <input>
        <sumo-net-file value="gargenville/gargenville.net.xml"/>
    </input>

    <output>
        <plain-output-prefix value="gargenville/gargenville"/>
    </output>

    <processing>
        <geometry.min-radius.fix.railways value="false"/>
        <geometry.max-grade.fix value="false"/>
        <offset.disable-normalization value="true"/>
        <lefthand value="0"/>
    </processing>

    <tls_building>
        <tls.ignore-internal-junction-jam value="1"/>
    </tls_building>

    <junctions>
        <no-turnarounds value="true"/>
        <junctions.corner-detail value="5"/>
        <junctions.limit-turn-speed value="5.50"/>
        <rectangular-lane-cut value="0"/>
    </junctions>

    <pedestrian>
        <walkingareas value="0"/>
    </pedestrian>

</configuration>
-->

<tlLogics version="1.16" xmlns:xsi="http://www.w3.org/2001/XMLSchema-instance" xsi:noNamespaceSchemaLocation="http://sumo.dlr.de/xsd/tllogic_file.xsd">
    <tlLogic id="1027012951" type="static" programID="0" offset="0">
        <phase duration="82" state="GG"/>
        <phase duration="3"  state="yy"/>
        <phase duration="5"  state="rr"/>
    </tlLogic>
    <tlLogic id="10736796412" type="static" programID="0" offset="0">
        <phase duration="82" state="G"/>
        <phase duration="3"  state="y"/>
        <phase duration="5"  state="r"/>
    </tlLogic>
    <tlLogic id="10736796422" type="static" programID="0" offset="0">
        <phase duration="82" state="G"/>
        <phase duration="3"  state="y"/>
        <phase duration="5"  state="r"/>
    </tlLogic>
    <tlLogic id="1360726026" type="static" programID="0" offset="0">
        <phase duration="82" state="G"/>
        <phase duration="3"  state="y"/>
        <phase duration="5"  state="r"/>
    </tlLogic>
    <tlLogic id="1447908801" type="static" programID="0" offset="0">
        <phase duration="21" state="rrrrGGgGgg"/>
        <phase duration="9"  state="rrrryyyyyy"/>
        <phase duration="21" state="GrgGrrGrGr"/>
        <phase duration="9"  state="yryyrryryr"/>
        <phase duration="21" state="GGgrGrrrrr"/>
        <phase duration="9"  state="yyyryrrrrr"/>
    </tlLogic>
    <tlLogic id="1745201987" type="static" programID="0" offset="0">
        <phase duration="82" state="GG"/>
        <phase duration="3"  state="yy"/>
        <phase duration="5"  state="rr"/>
    </tlLogic>
    <tlLogic id="7118977215" type="static" programID="0" offset="0">
        <phase duration="82" state="GG"/>
        <phase duration="3"  state="yy"/>
        <phase duration="5"  state="rr"/>
    </tlLogic>
    <tlLogic id="7553823621" type="static" programID="0" offset="0">
        <phase duration="82" state="GG"/>
        <phase duration="3"  state="yy"/>
        <phase duration="5"  state="rr"/>
    </tlLogic>
    <tlLogic id="7553834037" type="static" programID="0" offset="0">
        <phase duration="82" state="GG"/>
        <phase duration="3"  state="yy"/>
        <phase duration="5"  state="rr"/>
    </tlLogic>
    <tlLogic id="7553840153" type="static" programID="0" offset="0">
        <phase duration="82" state="GG"/>
        <phase duration="3"  state="yy"/>
        <phase duration="5"  state="rr"/>
    </tlLogic>
    <tlLogic id="7554344645" type="static" programID="0" offset="0">
        <phase duration="82" state="G"/>
        <phase duration="3"  state="y"/>
        <phase duration="5"  state="r"/>
    </tlLogic>
    <tlLogic id="7554386579" type="static" programID="0" offset="0">
        <phase duration="82" state="G"/>
        <phase duration="3"  state="y"/>
        <phase duration="5"  state="r"/>
    </tlLogic>
    <tlLogic id="7554405025" type="static" programID="0" offset="0">
        <phase duration="82" state="G"/>
        <phase duration="3"  state="y"/>
        <phase duration="5"  state="r"/>
    </tlLogic>
    <tlLogic id="7554411269" type="static" programID="0" offset="0">
        <phase duration="82" state="G"/>
        <phase duration="3"  state="y"/>
        <phase duration="5"  state="r"/>
    </tlLogic>
    <tlLogic id="7554412883" type="static" programID="0" offset="0">
        <phase duration="82" state="G"/>
        <phase duration="3"  state="y"/>
        <phase duration="5"  state="r"/>
    </tlLogic>
    <tlLogic id="7554426685" type="static" programID="0" offset="0">
        <phase duration="82" state="G"/>
        <phase duration="3"  state="y"/>
        <phase duration="5"  state="r"/>
    </tlLogic>
    <tlLogic id="joinedS_1027013596_1745202023_567890173" type="static" programID="0" offset="0">
        <phase duration="42" state="GGGrGGGG"/>
        <phase duration="3"  state="yyyryyyy"/>
        <phase duration="42" state="GGGgGGGG"/>
        <phase duration="3"  state="yyyyyyyy"/>
    </tlLogic>
    <tlLogic id="joinedS_1360726046_1360726048_1360726049_257050250" type="static" programID="0" offset="0">
        <phase duration="9"  state="Grrrrrrrrrrrr"/>
        <phase duration="3"  state="yrrrrrrrrrrrr"/>
        <phase duration="10" state="rGGrrrrrrrrrr"/>
        <phase duration="3"  state="ryyrrrrrrrrrr"/>
        <phase duration="10" state="rrrGGGrrrGrrr"/>
        <phase duration="3"  state="rrryyyrrryrrr"/>
        <phase duration="10" state="rrrrrrGGrGrrr"/>
        <phase duration="3"  state="rrrrrryyryrrr"/>
        <phase duration="10" state="rrrrrrrrGrrrr"/>
        <phase duration="3"  state="rrrrrrrryrrrr"/>
        <phase duration="10" state="rrrrrrrrrrGGr"/>
        <phase duration="3"  state="rrrrrrrrrryyr"/>
        <phase duration="10" state="rrrrrrrrrrrrG"/>
        <phase duration="3"  state="rrrrrrrrrrrry"/>
    </tlLogic>
    <tlLogic id="joinedS_1745202040_567890160" type="static" programID="0" offset="0">
        <phase duration="42" state="GGGrrGGGGrrrrrr"/>
        <phase duration="3"  state="yyyrryyyyrrrrrr"/>
        <phase duration="42" state="rrrGGrrrrGggGGg"/>
        <phase duration="3"  state="rrryyrrrryyyyyy"/>
    </tlLogic>
    <tlLogic id="joinedS_2295204636_475287986" type="static" programID="0" offset="0">
        <phase duration="42" state="rrrGGGGrrrGGGGrrrrrr"/>
        <phase duration="3"  state="rrryyyyrrryyyyrrrrrr"/>
        <phase duration="42" state="GGgrrrrGggrrrrGggGGg"/>
        <phase duration="3"  state="yyyrrrryyyrrrryyyyyy"/>
    </tlLogic>
    <tlLogic id="joinedS_2295204653_581198757" type="static" programID="0" offset="0">
        <phase duration="42" state="GGGGrrrrrrGGGrr"/>
        <phase duration="3"  state="yyyyrrrrrryyyrr"/>
        <phase duration="42" state="rrrrGggGGgrrrGG"/>
        <phase duration="3"  state="rrrryyyyyyrrryy"/>
    </tlLogic>
    <tlLogic id="joinedS_303067997_303068006" type="static" programID="0" offset="0">
        <phase duration="40" state="GGrGG"/>
        <phase duration="5"  state="yyryy"/>
        <phase duration="40" state="rrGGG"/>
        <phase duration="5"  state="rryyy"/>
    </tlLogic>
    <tlLogic id="joinedS_343456973_7553751335" type="static" programID="0" offset="0">
        <phase duration="42" state="rrGGGG"/>
        <phase duration="3"  state="rryyyy"/>
        <phase duration="42" state="GGrrGG"/>
        <phase duration="3"  state="yyrryy"/>
    </tlLogic>
    <tlLogic id="joinedS_580003473_580003588" type="static" programID="0" offset="0">
        <phase duration="42" state="rrrrrrGGGGrrrGGGGrrr"/>
        <phase duration="3"  state="rrrrrryyyyrrryyyyrrr"/>
        <phase duration="42" state="GggGGgrrrrGGgrrrrGgg"/>
        <phase duration="3"  state="yyyyyyrrrryyyrrrryyy"/>
    </tlLogic>
    <tlLogic id="joinedS_580003592_6193014140" type="static" programID="0" offset="0">
        <phase duration="42" state="rrrGGGGrrrGGGrr"/>
        <phase duration="3"  state="rrryyyyrrryyyrr"/>
        <phase duration="42" state="GGgrrrrGggrrrGG"/>
        <phase duration="3"  state="yyyrrrryyyrrryy"/>
    </tlLogic>
    <tlLogic id="joinedS_7556268077_7556308823_7556310310" type="static" programID="0" offset="0">
        <phase duration="40" state="GGGGrrrGGGGGrr"/>
        <phase duration="5"  state="yyyyrrryyyyyrr"/>
        <phase duration="40" state="GGGGGGGrrrrrGG"/>
        <phase duration="5"  state="yyyyyyyrrrrryy"/>
    </tlLogic>

    <connection from="-1113566183" to="-560464849#1" fromLane="0" toLane="0" tl="joinedS_7556268077_7556308823_7556310310" linkIndex="3"/>
    <connection from="-1177324794" to="-684910722#3" fromLane="0" toLane="0" tl="joinedS_1027013596_1745202023_567890173" linkIndex="2"/>
    <connection from="-1177324794" to="88410600#0" fromLane="0" toLane="0" tl="joinedS_1027013596_1745202023_567890173" linkIndex="3"/>
    <connection from="-1186342706#2" to="-1186342706#1" fromLane="0" toLane="0" tl="1745201987" linkIndex="1"/>
    <connection from="-130753480#1" to="-130753480#0" fromLane="0" toLane="0" tl="1448810939" linkIndex="0"/>
    <connection from="-130753494#1" to="-130753494#0" fromLane="0" toLane="0" tl="1448810943" linkIndex="1"/>
    <connection from="-131582345#0" to="-131582355#1" fromLane="0" toLane="0" tl="1447908790" linkIndex="1"/>
    <connection from="-131582348#0" to="-131582357#1" fromLane="0" toLane="0" tl="1447908801" linkIndex="7"/>
    <connection from="-131582348#0" to="-131584078#3" fromLane="0" toLane="0" tl="1447908801" linkIndex="8"/>
    <connection from="-131582348#0" to="131582357#2" fromLane="0" toLane="0" tl="1447908801" linkIndex="9"/>
    <connection from="-131584078#3" to="-131584078#2" fromLane="0" toLane="0" tl="1447928077" linkIndex="1"/>
    <connection from="-131590424#1" to="-131590424#0" fromLane="0" toLane="0" tl="1448810942" linkIndex="0"/>
    <connection from="-139460723#1" to="45513709#8" fromLane="0" toLane="0" tl="joinedS_580003473_580003588" linkIndex="3"/>
    <connection from="-139460723#1" to="45579337#0" fromLane="0" toLane="0" tl="joinedS_580003473_580003588" linkIndex="4"/>
    <connection from="-139460723#1" to="139460723#0" fromLane="0" toLane="0" tl="joinedS_580003473_580003588" linkIndex="5"/>
    <connection from="-139904759#3" to="-139904759#2" fromLane="0" toLane="0" tl="1533172196" linkIndex="1"/>
    <connection from="-220393191#1" to="220393185#0" fromLane="0" toLane="0" tl="joinedS_2295204636_475287986" linkIndex="17"/>
    <connection from="-220393191#1" to="-700058010" fromLane="0" toLane="0" tl="joinedS_2295204636_475287986" linkIndex="18"/>
    <connection from="-220393191#1" to="220393191#0" fromLane="0" toLane="0" tl="joinedS_2295204636_475287986" linkIndex="19"/>
    <connection from="-45579337#0" to="139460723#0" fromLane="0" toLane="0" tl="joinedS_580003473_580003588" linkIndex="0"/>
    <connection from="-45579337#0" to="45513709#8" fromLane="0" toLane="1" tl="joinedS_580003473_580003588" linkIndex="1"/>
    <connection from="-45579337#0" to="45579337#0" fromLane="0" toLane="0" tl="joinedS_580003473_580003588" linkIndex="2"/>
    <connection from="-45579337#2" to="45513710#0" fromLane="0" toLane="0" tl="joinedS_580003473_580003588" linkIndex="10"/>
    <connection from="-45579337#2" to="-45579337#0" fromLane="0" toLane="0" tl="joinedS_580003473_580003588" linkIndex="11"/>
    <connection from="-45579337#2" to="45579337#1" fromLane="0" toLane="0" tl="joinedS_580003473_580003588" linkIndex="12"/>
    <connection from="-45579340#1" to="722263992#0" fromLane="0" toLane="0" tl="joinedS_2295204653_581198757" linkIndex="7"/>
    <connection from="-45579340#1" to="-722263990" fromLane="0" toLane="0" tl="joinedS_2295204653_581198757" linkIndex="8"/>
    <connection from="-45579340#1" to="45579340#0" fromLane="0" toLane="0" tl="joinedS_2295204653_581198757" linkIndex="9"/>
    <connection from="-49070550#1" to="-49070550#0" fromLane="0" toLane="0" tl="622588681" linkIndex="0"/>
    <connection from="-49070550#2" to="-49070550#1" fromLane="0" toLane="0" tl="4085449076" linkIndex="0"/>
    <connection from="-560464826#1" to="-560464826#0" fromLane="0" toLane="0" tl="4855570252" linkIndex="2"/>
    <connection from="-560464826#1" to="-560464826#0" fromLane="1" toLane="1" tl="4855570252" linkIndex="3"/>
    <connection from="-560464826#2" to="-560464826#1" fromLane="0" toLane="0" tl="622068909" linkIndex="2"/>
    <connection from="-560464826#2" to="-560464826#1" fromLane="1" toLane="1" tl="622068909" linkIndex="3"/>
    <connection from="-59174014#5" to="-59174014#4" fromLane="0" toLane="0" tl="7118977215" linkIndex="1"/>
    <connection from="-684910702" to="-560406528#1" fromLane="0" toLane="0" tl="joinedS_1745202040_567890160" linkIndex="9"/>
    <connection from="-684910702" to="684910706#0" fromLane="0" toLane="1" tl="joinedS_1745202040_567890160" linkIndex="10"/>
    <connection from="-684910702" to="684910702" fromLane="0" toLane="0" tl="joinedS_1745202040_567890160" linkIndex="11"/>
    <connection from="-700058010" to="-45513711#2" fromLane="0" toLane="0" tl="joinedS_2295204636_475287986" linkIndex="7"/>
    <connection from="-700058010" to="722263987#0" fromLane="0" toLane="1" tl="joinedS_2295204636_475287986" linkIndex="8"/>
    <connection from="-700058010" to="700058010" fromLane="0" toLane="0" tl="joinedS_2295204636_475287986" linkIndex="9"/>
    <connection from="-714995292#2" to="-714995292#1" fromLane="0" toLane="0" tl="622588489" linkIndex="0"/>
    <connection from="-714995292#3" to="-714995292#2" fromLane="0" toLane="0" tl="4085449066" linkIndex="0"/>
    <connection from="-722263985" to="-45513706#4" fromLane="0" toLane="0" tl="joinedS_580003592_6193014140" linkIndex="7"/>
    <connection from="-722263985" to="1091359168#0" fromLane="0" toLane="1" tl="joinedS_580003592_6193014140" linkIndex="8"/>
    <connection from="-722263985" to="722263985" fromLane="0" toLane="0" tl="joinedS_580003592_6193014140" linkIndex="9"/>
    <connection from="-722263990" to="722263986#0" fromLane="0" toLane="1" tl="joinedS_2295204653_581198757" linkIndex="13"/>
    <connection from="-722263990" to="722263990" fromLane="0" toLane="0" tl="joinedS_2295204653_581198757" linkIndex="14"/>
    <connection from="-814160715#1" to="-814160715#0" fromLane="0" toLane="0" tl="7605515717" linkIndex="0"/>
    <connection from="1113566178#0" to="23211037#3" fromLane="0" toLane="1" tl="joinedS_303067997_303068006" linkIndex="2"/>
    <connection from="1113566190#0" to="887311743#2" fromLane="0" toLane="0" tl="joinedS_7556268077_7556308823_7556310310" linkIndex="4"/>
    <connection from="1113566190#0" to="1113566190#2" fromLane="0" toLane="0" tl="joinedS_7556268077_7556308823_7556310310" linkIndex="5"/>
    <connection from="1113566190#0" to="1113566190#2" fromLane="1" toLane="1" tl="joinedS_7556268077_7556308823_7556310310" linkIndex="6"/>
    <connection from="1114967948#1" to="1114967948#3" fromLane="0" toLane="0" tl="7554411269" linkIndex="0"/>
    <connection from="1154386264#0" to="121576167#0" fromLane="0" toLane="0" tl="joinedS_1360726046_1360726048_1360726049_257050250" linkIndex="3"/>
    <connection from="1154386264#0" to="1154386264#2" fromLane="0" toLane="0" tl="joinedS_1360726046_1360726048_1360726049_257050250" linkIndex="4"/>
    <connection from="1154386264#0" to="1154386264#2" fromLane="1" toLane="1" tl="joinedS_1360726046_1360726048_1360726049_257050250" linkIndex="5"/>
    <connection from="1154386270#0" to="1154386287" fromLane="0" toLane="0" tl="joinedS_1360726046_1360726048_1360726049_257050250" linkIndex="1"/>
    <connection from="1154386270#0" to="1154386287" fromLane="1" toLane="1" tl="joinedS_1360726046_1360726048_1360726049_257050250" linkIndex="2"/>
    <connection from="1154386272#0" to="1154386272#2" fromLane="0" toLane="0" tl="7553834037" linkIndex="0"/>
    <connection from="1154386272#0" to="1154386272#2" fromLane="1" toLane="1" tl="7553834037" linkIndex="1"/>
    <connection from="1154476431#0" to="1154476431#2" fromLane="0" toLane="0" tl="10736796412" linkIndex="0"/>
    <connection from="1154476432#1" to="1154476432#2" fromLane="0" toLane="0" tl="10736796422" linkIndex="0"/>
    <connection from="1154476433#0" to="1154476433#1" fromLane="0" toLane="0" tl="7554344645" linkIndex="0"/>
    <connection from="1154476434#0" to="1114967948#0" fromLane="0" toLane="1" tl="joinedS_303067997_303068006" linkIndex="4"/>
    <connection from="1177324786#3" to="684910711#0" fromLane="0" toLane="0" tl="joinedS_1745202040_567890160" linkIndex="0"/>
    <connection from="1177324786#3" to="684910711#0" fromLane="1" toLane="1" tl="joinedS_1745202040_567890160" linkIndex="1"/>
    <connection from="1177324786#3" to="-684910702" fromLane="1" toLane="0" tl="joinedS_1745202040_567890160" linkIndex="2"/>
    <connection from="1177324793#0" to="1177324793#1" fromLane="0" toLane="0" tl="joinedS_1027013596_1745202023_567890173" linkIndex="6"/>
    <connection from="1177324793#0" to="1177324793#1" fromLane="1" toLane="1" tl="joinedS_1027013596_1745202023_567890173" linkIndex="7"/>
    <connection from="1186342706#0" to="1186342706#2" fromLane="0" toLane="0" tl="1745201987" linkIndex="0"/>
    <connection from="121576160#1" to="121576160#3" fromLane="0" toLane="0" tl="7553823621" linkIndex="0"/>
    <connection from="121576160#1" to="121576160#3" fromLane="1" toLane="1" tl="7553823621" linkIndex="1"/>
    <connection from="121576167#0" to="956323347" fromLane="0" toLane="0" tl="joinedS_1360726046_1360726048_1360726049_257050250" linkIndex="9"/>
    <connection from="121576168#0" to="1154386287" fromLane="0" toLane="0" tl="joinedS_1360726046_1360726048_1360726049_257050250" linkIndex="0"/>
    <connection from="121576173#0" to="956323347" fromLane="0" toLane="0" tl="joinedS_1360726046_1360726048_1360726049_257050250" linkIndex="8"/>
    <connection from="121576176#0" to="121576176#2" fromLane="0" toLane="0" tl="1360726026" linkIndex="0"/>
    <connection from="121576180#0" to="121576167#0" fromLane="0" toLane="0" tl="joinedS_1360726046_1360726048_1360726049_257050250" linkIndex="6"/>
    <connection from="121576180#0" to="1154386264#2" fromLane="0" toLane="1" tl="joinedS_1360726046_1360726048_1360726049_257050250" linkIndex="7"/>
    <connection from="121576183#0" to="1154386311" fromLane="0" toLane="1" tl="joinedS_1360726046_1360726048_1360726049_257050250" linkIndex="12"/>
    <connection from="130753480#0" to="130753480#1" fromLane="0" toLane="0" tl="1448810939" linkIndex="1"/>
    <connection from="130753494#0" to="130753494#1" fromLane="0" toLane="0" tl="1448810943" linkIndex="0"/>
    <connection from="130919050#0" to="130919050#1" fromLane="0" toLane="0" tl="1447928077" linkIndex="-1"/>
    <connection from="130919050#1" to="130919050#2" fromLane="0" toLane="0" tl="1447908801" linkIndex="3"/>
    <connection from="130919050#2" to="130919050#3" fromLane="0" toLane="0" tl="1447908790" linkIndex="-1"/>
    <connection from="130919050#3" to="130919050#4" fromLane="0" toLane="0" tl="1448810942" linkIndex="-1"/>
    <connection from="130919050#5" to="130919050#6" fromLane="0" toLane="0" tl="1448810943" linkIndex="-1"/>
    <connection from="131582355#1" to="131582355#2" fromLane="0" toLane="0" tl="1447908790" linkIndex="0"/>
    <connection from="131582357#1" to="-131584078#3" fromLane="0" toLane="0" tl="1447908801" linkIndex="4"/>
    <connection from="131582357#1" to="131582357#2" fromLane="0" toLane="0" tl="1447908801" linkIndex="5"/>
    <connection from="131582357#1" to="-131582357#1" fromLane="0" toLane="0" tl="1447908801" linkIndex="6"/>
    <connection from="131584078#2" to="131584078#3" fromLane="0" toLane="0" tl="1447928077" linkIndex="0"/>
    <connection from="131584078#3" to="131582357#2" fromLane="0" toLane="0" tl="1447908801" linkIndex="0"/>
    <connection from="131584078#3" to="-131582357#1" fromLane="0" toLane="0" tl="1447908801" linkIndex="1"/>
    <connection from="131584078#3" to="-131584078#3" fromLane="0" toLane="0" tl="1447908801" linkIndex="2"/>
    <connection from="131590424#0" to="131590424#1" fromLane="0" toLane="0" tl="1448810942" linkIndex="1"/>
    <connection from="139904748#1" to="139904749#1" fromLane="0" toLane="0" tl="1533172196" linkIndex="-1"/>
    <connection from="139904759#2" to="139904759#3" fromLane="0" toLane="0" tl="1533172196" linkIndex="0"/>
    <connection from="170154541#3" to="170154541#4" fromLane="0" toLane="0" tl="1448810939" linkIndex="-1"/>
    <connection from="220393185#2" to="45579337#1" fromLane="0" toLane="0" tl="joinedS_580003473_580003588" linkIndex="13"/>
    <connection from="220393185#2" to="45513710#0" fromLane="0" toLane="0" tl="joinedS_580003473_580003588" linkIndex="14"/>
    <connection from="220393185#2" to="45513710#0" fromLane="1" toLane="1" tl="joinedS_580003473_580003588" linkIndex="15"/>
    <connection from="220393185#2" to="-45579337#0" fromLane="1" toLane="0" tl="joinedS_580003473_580003588" linkIndex="16"/>
    <connection from="23211037#0" to="23211037#3" fromLane="0" toLane="0" tl="joinedS_303067997_303068006" linkIndex="0"/>
    <connection from="23211037#0" to="23211037#3" fromLane="1" toLane="1" tl="joinedS_303067997_303068006" linkIndex="1"/>
    <connection from="23734642#2" to="23734642#4" fromLane="0" toLane="0" tl="joinedS_343456973_7553751335" linkIndex="4"/>
    <connection from="23734642#2" to="23734642#4" fromLane="1" toLane="1" tl="joinedS_343456973_7553751335" linkIndex="5"/>
    <connection from="27600019#0" to="1114967948#0" fromLane="0" toLane="0" tl="joinedS_303067997_303068006" linkIndex="3"/>
    <connection from="30890426#6" to="30890473#0" fromLane="0" toLane="0" tl="joinedS_343456973_7553751335" linkIndex="0"/>
    <connection from="30890426#6" to="30890426#9" fromLane="0" toLane="0" tl="joinedS_343456973_7553751335" linkIndex="1"/>
    <connection from="406480560#0" to="406480560#1" fromLane="0" toLane="0" tl="4085449076" linkIndex="-1"/>
    <connection from="406480560#1" to="406480560#2" fromLane="0" toLane="0" tl="4855570252" linkIndex="-1"/>
    <connection from="406480560#2" to="406480560#3" fromLane="0" toLane="0" tl="4159111646" linkIndex="-1"/>
    <connection from="406480560#3" to="406480560#4" fromLane="0" toLane="0" tl="4085449066" linkIndex="-1"/>
    <connection from="45513706#3" to="1091359168#0" fromLane="0" toLane="0" tl="joinedS_580003592_6193014140" linkIndex="0"/>
    <connection from="45513706#3" to="722263985" fromLane="0" toLane="0" tl="joinedS_580003592_6193014140" linkIndex="1"/>
    <connection from="45513706#3" to="-45513706#4" fromLane="0" toLane="0" tl="joinedS_580003592_6193014140" linkIndex="2"/>
    <connection from="45513709#6" to="139460723#0" fromLane="0" toLane="0" tl="joinedS_580003473_580003588" linkIndex="6"/>
    <connection from="45513709#6" to="45513709#8" fromLane="0" toLane="0" tl="joinedS_580003473_580003588" linkIndex="7"/>
    <connection from="45513709#6" to="45513709#8" fromLane="1" toLane="1" tl="joinedS_580003473_580003588" linkIndex="8"/>
    <connection from="45513709#6" to="45579337#0" fromLane="1" toLane="0" tl="joinedS_580003473_580003588" linkIndex="9"/>
    <connection from="45513709#8" to="-45513711#2" fromLane="0" toLane="0" tl="joinedS_2295204636_475287986" linkIndex="3"/>
    <connection from="45513709#8" to="722263987#0" fromLane="0" toLane="0" tl="joinedS_2295204636_475287986" linkIndex="4"/>
    <connection from="45513709#8" to="722263987#0" fromLane="1" toLane="1" tl="joinedS_2295204636_475287986" linkIndex="5"/>
    <connection from="45513709#8" to="700058010" fromLane="1" toLane="0" tl="joinedS_2295204636_475287986" linkIndex="6"/>
    <connection from="45513711#1" to="722263987#0" fromLane="0" toLane="0" tl="joinedS_2295204636_475287986" linkIndex="0"/>
    <connection from="45513711#1" to="700058010" fromLane="0" toLane="0" tl="joinedS_2295204636_475287986" linkIndex="1"/>
    <connection from="45513711#1" to="-45513711#2" fromLane="0" toLane="0" tl="joinedS_2295204636_475287986" linkIndex="2"/>
    <connection from="45513757#2" to="722263991#0" fromLane="0" toLane="0" tl="joinedS_580003592_6193014140" linkIndex="10"/>
    <connection from="45513757#2" to="722263991#0" fromLane="1" toLane="1" tl="joinedS_580003592_6193014140" linkIndex="11"/>
    <connection from="45513757#2" to="-722263985" fromLane="1" toLane="0" tl="joinedS_580003592_6193014140" linkIndex="12"/>
    <connection from="45579337#0" to="45579337#1" fromLane="0" toLane="0" tl="joinedS_580003473_580003588" linkIndex="17"/>
    <connection from="45579337#0" to="45513710#0" fromLane="0" toLane="1" tl="joinedS_580003473_580003588" linkIndex="18"/>
    <connection from="45579337#0" to="-45579337#0" fromLane="0" toLane="0" tl="joinedS_580003473_580003588" linkIndex="19"/>
    <connection from="47902319#4" to="47902319#5" fromLane="0" toLane="0" tl="7554426685" linkIndex="0"/>
    <connection from="49070550#0" to="49070550#1" fromLane="0" toLane="0" tl="622588681" linkIndex="1"/>
    <connection from="49070550#1" to="49070550#2" fromLane="0" toLane="0" tl="4085449076" linkIndex="1"/>
    <connection from="49129810#0" to="49129810#1" fromLane="0" toLane="0" tl="622588489" linkIndex="-1"/>
    <connection from="49129810#1" to="49129810#2" fromLane="0" toLane="0" tl="4159111644" linkIndex="-1"/>
    <connection from="49129810#2" to="49129810#3" fromLane="0" toLane="0" tl="622068909" linkIndex="-1"/>
    <connection from="49129810#3" to="49129810#4" fromLane="0" toLane="0" tl="622588681" linkIndex="-1"/>
    <connection from="560406528#1" to="684910706#0" fromLane="0" toLane="0" tl="joinedS_1745202040_567890160" linkIndex="12"/>
    <connection from="560406528#1" to="684910702" fromLane="0" toLane="0" tl="joinedS_1745202040_567890160" linkIndex="13"/>
    <connection from="560406528#1" to="-560406528#1" fromLane="0" toLane="0" tl="joinedS_1745202040_567890160" linkIndex="14"/>
    <connection from="560406532#1" to="-560406528#1" fromLane="0" toLane="0" tl="joinedS_1745202040_567890160" linkIndex="5"/>
    <connection from="560406532#1" to="684910706#0" fromLane="0" toLane="0" tl="joinedS_1745202040_567890160" linkIndex="6"/>
    <connection from="560406532#1" to="684910706#0" fromLane="1" toLane="1" tl="joinedS_1745202040_567890160" linkIndex="7"/>
    <connection from="560406532#1" to="684910702" fromLane="1" toLane="0" tl="joinedS_1745202040_567890160" linkIndex="8"/>
    <connection from="560464826#0" to="560464826#1" fromLane="0" toLane="0" tl="4855570252" linkIndex="0"/>
    <connection from="560464826#0" to="560464826#1" fromLane="1" toLane="1" tl="4855570252" linkIndex="1"/>
    <connection from="560464826#1" to="560464826#2" fromLane="0" toLane="0" tl="622068909" linkIndex="0"/>
    <connection from="560464826#1" to="560464826#2" fromLane="1" toLane="1" tl="622068909" linkIndex="1"/>
    <connection from="560464849#1" to="1113566181" fromLane="0" toLane="0" tl="joinedS_7556268077_7556308823_7556310310" linkIndex="0"/>
    <connection from="560464849#1" to="1113566183" fromLane="0" toLane="0" tl="joinedS_7556268077_7556308823_7556310310" linkIndex="1"/>
    <connection from="560464849#1" to="1113566183" fromLane="1" toLane="1" tl="joinedS_7556268077_7556308823_7556310310" linkIndex="2"/>
    <connection from="560464851#0" to="560464851#1" fromLane="0" toLane="0" tl="joinedS_7556268077_7556308823_7556310310" linkIndex="9"/>
    <connection from="560464851#0" to="560464851#1" fromLane="1" toLane="1" tl="joinedS_7556268077_7556308823_7556310310" linkIndex="10"/>
    <connection from="560464851#0" to="887311743#1" fromLane="1" toLane="0" tl="joinedS_7556268077_7556308823_7556310310" linkIndex="11"/>
    <connection from="560471257" to="47902319#2" fromLane="0" toLane="0" tl="7554405025" linkIndex="0"/>
    <connection from="57774118#0" to="57774118#2" fromLane="0" toLane="0" tl="7554412883" linkIndex="0"/>
    <connection from="59173984#0" to="30890473#0" fromLane="0" toLane="0" tl="joinedS_343456973_7553751335" linkIndex="2"/>
    <connection from="59173984#0" to="30890426#9" fromLane="0" toLane="0" tl="joinedS_343456973_7553751335" linkIndex="3"/>
    <connection from="59174014#3" to="59174014#5" fromLane="0" toLane="0" tl="7118977215" linkIndex="0"/>
    <connection from="684910702" to="684910711#0" fromLane="0" toLane="1" tl="joinedS_1745202040_567890160" linkIndex="3"/>
    <connection from="684910702" to="-684910702" fromLane="0" toLane="0" tl="joinedS_1745202040_567890160" linkIndex="4"/>
    <connection from="684910722#2" to="88410600#0" fromLane="0" toLane="0" tl="joinedS_1027013596_1745202023_567890173" linkIndex="0"/>
    <connection from="684910722#2" to="1177324794" fromLane="0" toLane="0" tl="joinedS_1027013596_1745202023_567890173" linkIndex="1"/>
    <connection from="68572391#0" to="68572391#1" fromLane="0" toLane="0" tl="7554386579" linkIndex="0"/>
    <connection from="700058010" to="220393191#0" fromLane="0" toLane="0" tl="joinedS_2295204636_475287986" linkIndex="14"/>
    <connection from="700058010" to="220393185#0" fromLane="0" toLane="1" tl="joinedS_2295204636_475287986" linkIndex="15"/>
    <connection from="700058010" to="-700058010" fromLane="0" toLane="0" tl="joinedS_2295204636_475287986" linkIndex="16"/>
    <connection from="714995292#1" to="714995292#2" fromLane="0" toLane="0" tl="622588489" linkIndex="1"/>
    <connection from="714995292#2" to="714995292#3" fromLane="0" toLane="0" tl="4085449066" linkIndex="1"/>
    <connection from="722263985" to="722263991#0" fromLane="0" toLane="1" tl="joinedS_580003592_6193014140" linkIndex="13"/>
    <connection from="722263985" to="-722263985" fromLane="0" toLane="0" tl="joinedS_580003592_6193014140" linkIndex="14"/>
    <connection from="722263986#0" to="-45513706#4" fromLane="0" toLane="0" tl="joinedS_580003592_6193014140" linkIndex="3"/>
    <connection from="722263986#0" to="1091359168#0" fromLane="0" toLane="0" tl="joinedS_580003592_6193014140" linkIndex="4"/>