<?xml version="1.0" encoding="UTF-8"?>

<!-- generated on 2025-04-08 15:14:29 by Eclipse SUMO netconvert Version 1.19.0
<configuration xmlns:xsi="http://www.w3.org/2001/XMLSchema-instance" xsi:noNamespaceSchemaLocation="http://sumo.dlr.de/xsd/netconvertConfiguration.xsd">

    <input>
        <sumo-net-file value="gargenville/gargenville.net.xml"/>
    </input>

    <output>
        <plain-output-prefix value="gargenville/gargenville"/>
    </output>

    <processing>
        <geometry.min-radius.fix.railways value="false"/>
        <geometry.max-grade.fix value="false"/>
        <offset.disable-normalization value="true"/>
        <lefthand value="0"/>
    </processing>

    <tls_building>
        <tls.ignore-internal-junction-jam value="1"/>
    </tls_building>

    <junctions>
        <no-turnarounds value="true"/>
        <junctions.corner-detail value="5"/>
        <junctions.limit-turn-speed value="5.50"/>
        <rectangular-lane-cut value="0"/>
    </junctions>

    <pedestrian>
        <walkingareas value="0"/>
    </pedestrian>

</configuration>
-->

<nodes version="1.16" xmlns:xsi="http://www.w3.org/2001/XMLSchema-instance" xsi:noNamespaceSchemaLocation="http://sumo.dlr.de/xsd/nodes_file.xsd">
    <location netOffset="-408034.43,-5419614.36" convBoundary="0.00,0.00,12127.83,9580.44" origBoundary="1.743019,48.923206,2.002758,49.009799" projParameter="+proj=utm +zone=31 +ellps=WGS84 +datum=WGS84 +units=m +no_defs"/>

    <node id="10047994951" x="8416.82" y="4495.48" type="priority"/>
    <node id="10051925119" x="8991.10" y="4825.55" type="priority"/>
    <node id="10051925126" x="8976.36" y="4863.95" type="right_before_left"/>
    <node id="10051925145" x="8934.22" y="4855.82" type="right_before_left"/>
    <node id="10051925150" x="8927.89" y="4854.62" type="priority"/>
    <node id="10051925152" x="8961.70" y="4919.84" type="priority"/>
    <node id="10085046067" x="4831.01" y="7442.60" type="priority"/>
    <node id="10101092330" x="6943.27" y="1963.85" type="priority"/>
    <node id="10101092339" x="6808.18" y="2198.92" type="priority"/>
    <node id="10101092342" x="6862.28" y="2208.08" type="dead_end"/>
    <node id="10101092343" x="6879.29" y="2233.14" type="dead_end"/>
    <node id="10101092344" x="7005.97" y="1875.32" type="priority"/>
    <node id="10101092346" x="7077.42" y="1696.64" type="right_before_left"/>
    <node id="10101092348" x="7091.01" y="1658.39" type="dead_end"/>
    <node id="10101092349" x="7086.01" y="1665.43" type="priority"/>
    <node id="10101092351" x="7086.12" y="1708.75" type="priority"/>
    <node id="10101092379" x="7071.39" y="1609.65" type="priority"/>
    <node id="10101092388" x="7070.54" y="1694.06" type="dead_end"/>
    <node id="10101096824" x="7051.43" y="1675.99" type="dead_end"/>
    <node id="10106633591" x="6713.23" y="2645.51" type="priority"/>
    <node id="10106633592" x="6777.67" y="2665.26" type="priority"/>
    <node id="10106633598" x="7099.58" y="1910.98" type="priority"/>
    <node id="10126711819" x="4705.35" y="4389.13" type="priority"/>
    <node id="10126711821" x="4709.82" y="4398.36" type="priority"/>
    <node id="10126711839" x="4883.00" y="3741.38" type="priority"/>
    <node id="10126711845" x="4845.33" y="3659.78" type="priority"/>
    <node id="10126997139" x="8263.11" y="6665.83" type="priority"/>
    <node id="10187882364" x="4915.00" y="4126.47" type="priority"/>
    <node id="10187882371" x="6300.18" y="3784.02" type="priority"/>
    <node id="10187882381" x="6319.72" y="3685.36" type="priority"/>
    <node id="10187882383" x="6296.14" y="3752.57" type="priority"/>
    <node id="10187882387" x="6199.22" y="3750.95" type="priority"/>
    <node id="10187882388" x="6230.04" y="3759.39" type="priority"/>
    <node id="10187882391" x="6659.31" y="3905.67" type="priority"/>
    <node id="10187882392" x="6664.61" y="3898.59" type="priority"/>
    <node id="10187882393" x="6657.49" y="3898.60" type="priority"/>
    <node id="10187882397" x="6645.15" y="3883.79" type="priority"/>
    <node id="10187882400" x="6587.32" y="3862.72" type="priority"/>
    <node id="10197595770" x="6611.79" y="2720.01" type="priority"/>
    <node id="10197595777" x="6507.61" y="3148.50" type="priority"/>
    <node id="10197595781" x="4785.91" y="4196.02" type="priority"/>
    <node id="10197595782" x="4792.00" y="4194.11" type="priority"/>
    <node id="10197595783" x="4794.04" y="4226.22" type="priority"/>
    <node id="10197600039" x="4902.39" y="4813.17" type="priority"/>
    <node id="10210550731" x="8418.19" y="4722.06" type="priority"/>
    <node id="10210550732" x="8418.40" y="4723.84" type="dead_end"/>
    <node id="10225220961" x="7060.38" y="1690.76" type="dead_end"/>
    <node id="10236118722" x="5112.88" y="3326.97" type="priority"/>
    <node id="10236118727" x="5059.99" y="3347.56" type="priority"/>
    <node id="10238128097" x="4798.31" y="3181.28" type="priority"/>
    <node id="10238128103" x="4974.35" y="3044.88" type="priority"/>
    <node id="10238158922" x="4783.76" y="3223.40" type="priority"/>
    <node id="10245517826" x="5075.61" y="2964.12" type="priority"/>
    <node id="10245517828" x="5110.46" y="2946.55" type="priority"/>
    <node id="10245517829" x="5133.66" y="2943.12" type="priority"/>
    <node id="10245517831" x="5174.49" y="2920.78" type="priority"/>
    <node id="10253596289" x="8438.54" y="1556.25" type="priority"/>
    <node id="10253596294" x="8519.15" y="1623.22" type="priority"/>
    <node id="10253596295" x="8496.04" y="1659.82" type="priority"/>
    <node id="10253596296" x="8451.20" y="1578.09" type="priority"/>
    <node id="10253596297" x="8430.41" y="1612.08" type="priority"/>
    <node id="10264758929" x="5912.30" y="7207.03" type="priority"/>
    <node id="10266998716" x="5686.32" y="7199.71" type="priority"/>
    <node id="1027012927" x="7063.62" y="7394.63" type="priority"/>
    <node id="1027012929" x="6464.20" y="8836.13" type="priority"/>
    <node id="1027012939" x="6160.77" y="7207.21" type="priority"/>
    <node id="1027012946" x="8548.15" y="7563.06" type="priority"/>
    <node id="1027012950" x="7076.52" y="8760.74" type="priority"/>
    <node id="1027012951" x="6157.42" y="7216.13" type="traffic_light" tl="1027012951"/>
    <node id="1027012960" x="8663.33" y="7558.28" type="right_before_left"/>
    <node id="1027012961" x="6685.41" y="8520.90" type="priority"/>
    <node id="1027012976" x="6182.26" y="7211.68" type="priority"/>
    <node id="1027012978" x="8616.32" y="7519.43" type="priority"/>
    <node id="1027012989" x="8657.58" y="7460.96" type="priority"/>
    <node id="1027012991" x="6148.42" y="7170.38" type="priority"/>
    <node id="1027013007" x="8625.29" y="7584.98" type="priority"/>
    <node id="1027013042" x="6138.28" y="7219.80" type="priority"/>
    <node id="1027013045" x="7070.60" y="7038.78" type="priority"/>
    <node id="1027013052" x="7520.54" y="7603.02" type="priority"/>
    <node id="1027013076" x="6602.44" y="8185.62" type="right_before_left"/>
    <node id="1027013080" x="5015.76" y="7938.73" type="priority"/>
    <node id="1027013089" x="6637.27" y="7339.50" type="priority"/>
    <node id="1027013107" x="6065.21" y="9002.71" type="priority"/>
    <node id="1027013111" x="6147.46" y="7221.16" type="priority"/>
    <node id="1027013114" x="6768.45" y="8034.67" type="right_before_left"/>
    <node id="1027013116" x="7588.48" y="7894.22" type="priority"/>
    <node id="1027013120" x="8654.68" y="7579.69" type="priority"/>
    <node id="1027013124" x="7045.42" y="7355.88" type="priority"/>
    <node id="1027013131" x="6094.94" y="7220.46" type="priority"/>
    <node id="1027013137" x="6125.02" y="8082.57" type="priority"/>
    <node id="1027013141" x="6854.67" y="7349.77" type="priority"/>
    <node id="1027013143" x="7471.41" y="7542.85" type="priority"/>
    <node id="1027013154" x="8664.71" y="7432.34" type="right_before_left"/>
    <node id="1027013156" x="6145.57" y="7204.05" type="priority"/>
    <node id="1027013165" x="8539.31" y="7591.69" type="priority"/>
    <node id="1027013171" x="7162.34" y="7428.40" type="priority"/>
    <node id="1027013182" x="6428.41" y="7746.58" type="priority"/>
    <node id="1027013183" x="6963.76" y="7350.56" type="priority"/>
    <node id="1027013192" x="7551.44" y="7716.52" type="priority"/>
    <node id="1027013200" x="6506.62" y="7508.53" type="priority"/>
    <node id="1027013214" x="8030.93" y="7968.43" type="priority"/>
    <node id="1027013218" x="7166.08" y="8194.08" type="priority"/>
    <node id="1027013237" x="6806.34" y="7835.00" type="priority"/>
    <node id="1027013243" x="7531.67" y="7645.84" type="priority"/>
    <node id="1027013249" x="8650.72" y="7552.15" type="right_before_left"/>
    <node id="1027013254" x="6152.15" y="7222.15" type="priority"/>
    <node id="1027013279" x="7407.19" y="7525.81" type="priority"/>
    <node id="1027013284" x="6157.35" y="7223.36" type="priority"/>
    <node id="1027013299" x="8638.66" y="7546.28" type="right_before_left"/>
    <node id="1027013304" x="6142.78" y="7230.05" type="priority"/>
    <node id="1027013308" x="6179.10" y="7140.23" type="priority"/>
    <node id="1027013310" x="7466.87" y="7705.14" type="priority"/>
    <node id="1027013318" x="7053.10" y="6990.72" type="priority"/>
    <node id="1027013329" x="7510.41" y="7683.71" type="priority"/>
    <node id="1027013331" x="6801.26" y="7364.95" type="priority"/>
    <node id="1027013334" x="8134.82" y="8320.64" type="right_before_left"/>
    <node id="1027013377" x="6291.20" y="7234.31" type="priority"/>
    <node id="1027013384" x="7058.28" y="7422.98" type="priority"/>
    <node id="1027013422" x="6195.84" y="7148.39" type="priority"/>
    <node id="1027013441" x="7459.07" y="8317.31" type="priority"/>
    <node id="1027013458" x="6173.15" y="7235.93" type="priority"/>
    <node id="1027013467" x="8641.37" y="7575.17" type="priority"/>
    <node id="1027013468" x="7982.41" y="8122.43" type="priority"/>
    <node id="1027013472" x="6632.47" y="6790.81" type="priority"/>
    <node id="1027013488" x="6783.39" y="8153.88" type="right_before_left"/>
    <node id="1027013493" x="6208.34" y="7183.40" type="priority"/>
    <node id="1027013513" x="6172.16" y="7175.60" type="priority"/>
    <node id="1027013516" x="8381.36" y="8582.87" type="priority"/>
    <node id="1027013518" x="7935.62" y="8190.84" type="priority"/>
    <node id="1027013524" x="6879.86" y="7345.53" type="priority"/>
    <node id="1027013531" x="7460.67" y="7593.38" type="right_before_left"/>
    <node id="1027013536" x="7400.77" y="7581.28" type="priority"/>
    <node id="1027013542" x="8452.38" y="7990.97" type="right_before_left"/>
    <node id="1027013543" x="6151.27" y="7205.23" type="priority"/>
    <node id="1027013546" x="6200.81" y="7215.86" type="priority"/>
    <node id="1027013564" x="6188.90" y="7179.21" type="priority"/>
    <node id="1027013570" x="7069.06" y="7357.36" type="priority"/>
    <node id="1027013576" x="6150.05" y="7225.01" type="priority"/>
    <node id="1027013582" x="7483.73" y="7717.70" type="priority"/>
    <node id="1027013590" x="6319.87" y="8199.35" type="right_before_left"/>
    <node id="1027013596" x="6967.59" y="7359.80" type="traffic_light" tl="joinedS_1027013596_1745202023_567890173"/>
    <node id="1027013598" x="6165.57" y="7208.21" type="priority"/>
    <node id="10295115918" x="3868.12" y="7433.57" type="priority"/>
    <node id="10295115919" x="3892.17" y="7378.00" type="right_before_left"/>
    <node id="10295115921" x="3862.48" y="7334.94" type="right_before_left"/>
    <node id="10295128417" x="3870.57" y="7819.42" type="priority"/>
    <node id="10295128420" x="3870.21" y="7789.69" type="right_before_left"/>
    <node id="1029875001" x="4944.68" y="4605.06" type="priority"/>
    <node id="1029875015" x="5485.19" y="3982.39" type="priority"/>
    <node id="1029875117" x="5051.60" y="4258.03" type="right_before_left"/>
    <node id="1029875172" x="5762.37" y="4304.60" type="priority"/>
    <node id="1029875183" x="4924.58" y="4781.87" type="priority"/>
    <node id="1029875771" x="4989.76" y="4247.81" type="priority"/>
    <node id="1029876038" x="5078.81" y="4201.93" type="priority"/>
    <node id="1029876094" x="5524.60" y="4320.36" type="priority"/>
    <node id="1029876098" x="5002.89" y="4215.66" type="right_before_left"/>
    <node id="1029876116" x="4838.00" y="5198.61" type="priority"/>
    <node id="1029876145" x="4247.21" y="5874.87" type="priority"/>
    <node id="1029876152" x="5040.05" y="4318.34" type="priority"/>
    <node id="1029876206" x="4634.46" y="4543.14" type="priority"/>
    <node id="1029876232" x="4861.26" y="5207.77" type="priority"/>
    <node id="1029876258" x="4718.41" y="4477.83" type="dead_end"/>
    <node id="1029876364" x="4722.90" y="4563.66" type="priority"/>
    <node id="1029876454" x="5604.32" y="3924.06" type="priority"/>
    <node id="1029876463" x="5006.06" y="4252.84" type="priority"/>
    <node id="1029876504" x="4988.81" y="4216.78" type="priority"/>
    <node id="1029876518" x="8818.36" y="5178.02" type="priority"/>
    <node id="1029876556" x="5888.01" y="3858.15" type="priority"/>
    <node id="1029876609" x="6981.93" y="4427.30" type="priority"/>
    <node id="1029876696" x="4722.89" y="4557.35" type="priority"/>
    <node id="1029876723" x="3972.17" y="4463.25" type="priority"/>
    <node id="10300965108" x="8235.68" y="3114.72" type="priority"/>
    <node id="10301001609" x="8206.67" y="3117.72" type="right_before_left"/>
    <node id="1031488695" x="4347.91" y="6595.33" type="priority"/>
    <node id="1031489021" x="4432.00" y="6759.94" type="priority"/>
    <node id="1031489120" x="4322.09" y="6482.03" type="priority"/>
    <node id="1031489154" x="4224.77" y="7990.61" type="right_before_left"/>
    <node id="1031489248" x="4384.80" y="6499.60" type="priority"/>
    <node id="1031489403" x="5359.02" y="7996.75" type="priority"/>
    <node id="1031489497" x="4331.29" y="6524.36" type="priority"/>
    <node id="1031489504" x="4473.02" y="7017.20" type="priority"/>
    <node id="1031489674" x="4336.83" y="7021.86" type="priority"/>
    <node id="1031489679" x="4408.79" y="6612.79" type="priority"/>
    <node id="1031489726" x="4248.49" y="6594.95" type="priority"/>
    <node id="10557379417" x="5733.75" y="3645.53" type="priority"/>
    <node id="10568547145" x="6448.72" y="3147.81" type="priority"/>
    <node id="10568547158" x="7868.57" y="4659.86" type="priority"/>
    <node id="10568547176" x="8088.93" y="4183.08" type="priority"/>
    <node id="10586440805" x="8576.92" y="1590.00" type="priority"/>
    <node id="10586669366" x="8240.99" y="2165.64" type="priority"/>
    <node id="10586669374" x="8305.15" y="2403.35" type="priority"/>
    <node id="10586669375" x="8284.79" y="2328.80" type="priority"/>
    <node id="10586669379" x="8268.25" y="2293.25" type="right_before_left"/>
    <node id="10586669386" x="8252.23" y="2212.53" type="right_before_left"/>
    <node id="10587136488" x="7972.71" y="4493.68" type="priority"/>
    <node id="10587136489" x="7891.16" y="4555.32" type="priority"/>
    <node id="10587136495" x="7907.62" y="4559.48" type="right_before_left"/>
    <node id="10587185405" x="7934.88" y="4479.19" type="right_before_left"/>
    <node id="10587185406" x="7914.28" y="4473.77" type="priority"/>
    <node id="10587185408" x="7973.40" y="4490.33" type="priority"/>
    <node id="10587185409" x="7892.63" y="4610.22" type="priority"/>
    <node id="10587185417" x="7933.48" y="4585.42" type="priority"/>
    <node id="10587185419" x="7943.43" y="4574.02" type="priority"/>
    <node id="10587185428" x="6705.92" y="3899.03" type="priority"/>
    <node id="10587185438" x="6185.86" y="4025.11" type="priority"/>
    <node id="10587185451" x="7833.81" y="4873.32" type="priority"/>
    <node id="10587185454" x="7806.02" y="4948.15" type="priority"/>
    <node id="10587185456" x="7810.38" y="4907.02" type="priority"/>
    <node id="10587185459" x="7854.50" y="4925.88" type="priority"/>
    <node id="10587185529" x="7575.48" y="4427.15" type="priority"/>
    <node id="10587185530" x="7562.14" y="4347.59" type="priority"/>
    <node id="10587185552" x="7123.02" y="3953.74" type="priority"/>
    <node id="10588644118" x="4191.63" y="4277.29" type="priority"/>
    <node id="10588644123" x="4183.17" y="4177.27" type="priority"/>
    <node id="10588644128" x="4422.09" y="4187.84" type="priority"/>
    <node id="10588644129" x="4376.29" y="4193.56" type="priority"/>
    <node id="10588644140" x="5842.24" y="3664.29" type="priority"/>
    <node id="10588644142" x="5837.18" y="3711.56" type="priority"/>
    <node id="10588644143" x="5954.28" y="3670.39" type="priority"/>
    <node id="10588644148" x="5859.57" y="3686.76" type="right_before_left"/>
    <node id="10588644179" x="5144.90" y="4463.31" type="priority"/>
    <node id="10588644189" x="5088.41" y="4285.57" type="priority"/>
    <node id="10588644296" x="5987.70" y="4874.89" type="priority"/>
    <node id="10588644298" x="6004.44" y="4908.20" type="priority"/>
    <node id="10588644299" x="5994.79" y="4882.29" type="right_before_left"/>
    <node id="10588741593" x="8805.09" y="4750.47" type="priority"/>
    <node id="10588741600" x="8798.77" y="4760.20" type="priority"/>
    <node id="10588741605" x="8821.19" y="4767.55" type="priority"/>
    <node id="10588741608" x="8822.79" y="4758.62" type="priority"/>
    <node id="10588741614" x="8920.58" y="4796.60" type="priority"/>
    <node id="1061512819" x="5675.34" y="7122.94" type="priority"/>
    <node id="1061512863" x="4096.29" y="6541.26" type="priority"/>
    <node id="1061512875" x="5633.16" y="7107.31" type="priority"/>
    <node id="1061512895" x="4900.39" y="6544.76" type="priority"/>
    <node id="1061512909" x="5614.28" y="7112.57" type="priority"/>
    <node id="1061512927" x="5675.34" y="7108.01" type="priority"/>
    <node id="1061512948" x="4745.96" y="6632.25" type="priority"/>
    <node id="1061512949" x="5675.96" y="7206.00" type="priority"/>
    <node id="1061512968" x="5662.61" y="7161.37" type="priority"/>
    <node id="1061513004" x="5600.66" y="7112.27" type="priority"/>
    <node id="1061513051" x="5627.23" y="7155.37" type="priority"/>
    <node id="1061513091" x="5708.58" y="7108.56" type="priority"/>
    <node id="1061513111" x="4738.60" y="6704.87" type="priority"/>
    <node id="1061513114" x="5663.10" y="7107.81" type="priority"/>
    <node id="1061513141" x="4775.32" y="6648.40" type="priority"/>
    <node id="1061513215" x="5684.36" y="7179.36" type="priority"/>
    <node id="1061513265" x="4843.87" y="6499.36" type="right_before_left"/>
    <node id="1061513298" x="5648.71" y="7107.57" type="priority"/>
    <node id="1061513321" x="5647.99" y="7161.47" type="priority"/>
    <node id="1061513352" x="5677.03" y="7187.85" type="priority"/>
    <node id="1061513370" x="5630.32" y="7161.60" type="priority"/>
    <node id="1061513408" x="4938.97" y="6498.67" type="priority"/>
    <node id="1061513429" x="5732.66" y="7199.83" type="priority"/>
    <node id="1061513463" x="3751.06" y="7445.75" type="priority"/>
    <node id="1061513490" x="5691.15" y="7108.28" type="priority"/>
    <node id="1061513502" x="4733.93" y="6645.42" type="priority"/>
    <node id="1061513505" x="5690.66" y="7123.17" type="priority"/>
    <node id="1061513667" x="4885.22" y="6606.76" type="priority"/>
    <node id="1061513678" x="4694.65" y="6632.05" type="priority"/>
    <node id="1065596859" x="6828.77" y="6623.41" type="priority"/>
    <node id="1065596931" x="4722.57" y="5578.01" type="priority"/>
    <node id="1065597054" x="4731.02" y="5515.27" type="right_before_left"/>
    <node id="1065597262" x="4743.32" y="5516.63" type="priority"/>
    <node id="10696009898" x="8473.26" y="4256.67" type="priority"/>
    <node id="10696012756" x="6739.95" y="2553.78" type="priority"/>
    <node id="10696012765" x="6781.23" y="2535.71" type="priority"/>
    <node id="10717904913" x="3776.62" y="6705.27" type="priority"/>
    <node id="10717904915" x="3773.60" y="6722.16" type="priority"/>
    <node id="10717904958" x="4978.27" y="4343.85" type="priority"/>
    <node id="10717904969" x="5005.52" y="4306.00" type="priority"/>
    <node id="10717904989" x="5007.22" y="4347.58" type="priority"/>
    <node id="10717904994" x="5016.15" y="4338.19" type="priority"/>
    <node id="10717905018" x="4973.70" y="4337.37" type="priority"/>
    <node id="10717905073" x="4919.14" y="4754.68" type="priority"/>
    <node id="10722339791" x="7465.61" y="7647.43" type="priority"/>
    <node id="10722339792" x="7524.94" y="7665.50" type="priority"/>
    <node id="10722339793" x="7538.22" y="7645.03" type="right_before_left"/>
    <node id="10722339798" x="7534.65" y="7653.54" type="priority"/>
    <node id="10727872504" x="4917.96" y="7456.16" type="priority"/>
    <node id="10727897910" x="4901.56" y="7349.80" type="priority"/>
    <node id="10727897913" x="4780.30" y="7439.33" type="priority"/>
    <node id="10727897914" x="4823.59" y="7442.37" type="dead_end"/>
    <node id="10732448088" x="3968.05" y="7555.55" type="priority"/>
    <node id="10732448103" x="4270.82" y="7542.34" type="priority"/>
    <node id="10732448104" x="4326.16" y="7608.34" type="priority"/>
    <node id="10732449005" x="4312.98" y="7682.48" type="priority"/>
    <node id="10732449011" x="3778.66" y="7104.91" type="priority"/>
    <node id="10732449012" x="3801.95" y="7105.52" type="right_before_left"/>
    <node id="10732449013" x="3801.04" y="7135.78" type="priority"/>
    <node id="10732449014" x="3802.47" y="7087.93" type="right_before_left"/>
    <node id="10732449015" x="3819.82" y="7088.80" type="priority"/>
    <node id="10732449016" x="3757.62" y="7085.71" type="priority"/>
    <node id="10732449017" x="3856.89" y="7068.44" type="priority"/>
    <node id="10732449020" x="3867.68" y="6980.38" type="priority"/>
    <node id="10732449029" x="4060.57" y="6941.04" type="priority"/>
    <node id="10732449034" x="3907.34" y="6685.02" type="priority"/>
    <node id="10732449037" x="4214.15" y="7318.87" type="priority"/>
    <node id="10732449038" x="4190.76" y="7323.92" type="priority"/>
    <node id="10732449039" x="4200.31" y="7299.72" type="priority"/>
    <node id="10732449040" x="4198.92" y="7317.54" type="priority"/>
    <node id="10732449044" x="4182.77" y="7385.12" type="priority"/>
    <node id="10732449045" x="4199.92" y="7406.08" type="priority"/>
    <node id="10732449048" x="4160.91" y="7382.17" type="priority"/>
    <node id="10732449060" x="4166.30" y="7321.19" type="priority"/>
    <node id="10732464304" x="5888.51" y="7206.83" type="priority"/>
    <node id="10732466407" x="7625.66" y="7766.10" type="priority"/>
    <node id="10732466408" x="7455.54" y="7847.83" type="priority"/>
    <node id="10732466411" x="7401.72" y="7878.88" type="right_before_left"/>
    <node id="10732466412" x="8673.01" y="7995.35" type="priority"/>
    <node id="10732466416" x="8609.50" y="7996.15" type="priority"/>
    <node id="10732466417" x="5036.79" y="7567.87" type="priority"/>
    <node id="10732466418" x="7183.17" y="7851.70" type="priority"/>
    <node id="10732466420" x="7202.06" y="7818.85" type="priority"/>
    <node id="10733720733" x="6020.37" y="7202.87" type="priority"/>
    <node id="10733720765" x="4915.15" y="6709.64" type="priority"/>
    <node id="10733720779" x="4941.12" y="6710.93" type="priority"/>
    <node id="10733720789" x="4933.19" y="6707.93" type="priority"/>
    <node id="10733720790" x="4932.45" y="6708.39" type="priority"/>
    <node id="10733723620" x="4939.42" y="6409.85" type="priority"/>
    <node id="10733723628" x="4930.34" y="6412.88" type="priority"/>
    <node id="10733723635" x="4928.05" y="6406.05" type="priority"/>
    <node id="10733723639" x="4927.36" y="6396.38" type="priority"/>
    <node id="10733723655" x="4935.11" y="6402.13" type="priority"/>
    <node id="10733723661" x="4939.40" y="6548.18" type="priority"/>
    <node id="10735976560" x="7194.90" y="5198.37" type="priority"/>
    <node id="10735976583" x="7183.99" y="5202.76" type="priority"/>
    <node id="10735976584" x="7187.76" y="5213.04" type="priority"/>
    <node id="10735976585" x="7198.09" y="5210.76" type="priority"/>
    <node id="10735976592" x="7028.04" y="5597.07" type="priority"/>
    <node id="10735976593" x="7024.96" y="5607.55" type="priority"/>
    <node id="10735976594" x="7018.88" y="5596.59" type="right_before_left"/>
    <node id="10735976597" x="7035.79" y="5604.60" type="priority"/>
    <node id="10736015214" x="7043.98" y="5615.41" type="right_before_left"/>
    <node id="10736015224" x="6601.10" y="5267.93" type="right_before_left"/>
    <node id="10736015235" x="6323.16" y="4978.93" type="priority"/>
    <node id="10736015236" x="6282.89" y="4965.84" type="priority"/>
    <node id="10736015240" x="6310.19" y="4959.47" type="priority"/>
    <node id="10736015246" x="6320.08" y="4976.47" type="priority"/>
    <node id="10736015248" x="6299.75" y="4970.58" type="priority"/>
    <node id="10736015252" x="6711.80" y="5030.20" type="right_before_left"/>
    <node id="10736015253" x="6715.38" y="5031.20" type="right_before_left"/>
    <node id="10736015330" x="8353.76" y="4185.13" type="priority"/>
    <node id="10736015340" x="8379.03" y="4187.38" type="priority"/>
    <node id="10736015480" x="7765.93" y="5730.15" type="priority"/>
    <node id="10736015505" x="8006.48" y="5803.39" type="priority"/>
    <node id="10736015506" x="8004.04" y="5798.13" type="priority"/>
    <node id="10736015507" x="7834.74" y="5860.72" type="priority"/>
    <node id="10736015508" x="7838.46" y="5868.11" type="priority"/>
    <node id="10736015509" x="7729.46" y="5899.46" type="priority"/>
    <node id="10736015510" x="7733.34" y="5907.43" type="priority"/>
    <node id="10736015512" x="7724.99" y="6013.51" type="right_before_left"/>
    <node id="10736015513" x="7722.00" y="6021.37" type="right_before_left"/>
    <node id="10736015514" x="7758.63" y="6064.01" type="right_before_left"/>
    <node id="10736015515" x="7764.56" y="6048.54" type="right_before_left"/>
    <node id="10736015518" x="7785.97" y="6062.23" type="right_before_left"/>
    <node id="10736015519" x="7813.67" y="6079.91" type="right_before_left"/>
    <node id="10736015520" x="7653.13" y="5935.17" type="priority"/>
    <node id="10736015522" x="7650.12" y="5967.00" type="right_before_left"/>
    <node id="10736015530" x="7614.79" y="5944.13" type="priority"/>
    <node id="10736015531" x="7605.27" y="5947.71" type="priority"/>
    <node id="10736015532" x="7610.70" y="5951.22" type="priority"/>
    <node id="10736015533" x="7456.93" y="5858.99" type="priority"/>
    <node id="10736015538" x="7465.04" y="5858.80" type="priority"/>
    <node id="10736015539" x="7472.70" y="5852.79" type="priority"/>
    <node id="10736015540" x="7473.76" y="5840.16" type="priority"/>
    <node id="10736015550" x="7448.53" y="5838.26" type="priority"/>
    <node id="10736015565" x="7465.53" y="5832.22" type="priority"/>
    <node id="10736015639" x="7998.69" y="5801.34" type="priority"/>
    <node id="10736015646" x="7999.08" y="5807.21" type="priority"/>
    <node id="10736015661" x="7511.20" y="5431.09" type="priority"/>
    <node id="10736015666" x="7492.29" y="5433.56" type="priority"/>
    <node id="10736015667" x="7485.76" y="5431.57" type="priority"/>
    <node id="10736015668" x="7493.32" y="5454.84" type="priority"/>
    <node id="10736015669" x="7499.58" y="5474.13" type="priority"/>
    <node id="10736015670" x="7508.38" y="5476.85" type="priority"/>
    <node id="10736015671" x="7518.05" y="5473.27" type="priority"/>
    <node id="10736015672" x="7520.88" y="5469.13" type="priority"/>
    <node id="10736015677" x="7534.62" y="5469.25" type="priority"/>
    <node id="10736015691" x="7499.93" y="5443.52" type="priority"/>
    <node id="10736015693" x="7526.84" y="5438.97" type="priority"/>
    <node id="10736015695" x="7517.30" y="5422.78" type="priority"/>
    <node id="10736015705" x="7493.54" y="5464.82" type="priority"/>
    <node id="10736015735" x="7584.56" y="3703.65" type="priority"/>
    <node id="10736015739" x="7575.48" y="3719.84" type="priority"/>
    <node id="10736015768" x="8111.22" y="3466.91" type="priority"/>
    <node id="10736015775" x="8120.41" y="3473.63" type="priority"/>
    <node id="10736015777" x="8166.29" y="3379.54" type="priority"/>
    <node id="10736015785" x="8173.60" y="3369.17" type="right_before_left"/>
    <node id="10736015786" x="8175.96" y="3390.64" type="priority"/>
    <node id="10736015796" x="8322.02" y="3172.58" type="priority"/>
    <node id="10736015797" x="8323.42" y="3184.16" type="priority"/>
    <node id="10736015798" x="8310.53" y="3186.58" type="priority"/>
    <node id="10736015819" x="8309.99" y="3172.12" type="priority"/>
    <node id="10736015833" x="8354.39" y="3253.71" type="priority"/>
    <node id="10736015865" x="8482.82" y="3479.51" type="priority"/>
    <node id="10736015871" x="8505.32" y="3482.73" type="priority"/>
    <node id="10736015872" x="8495.12" y="3469.16" type="priority"/>
    <node id="10736015888" x="8496.68" y="3446.24" type="priority"/>
    <node id="10736015892" x="8470.31" y="3442.89" type="priority"/>
    <node id="10736015898" x="8459.03" y="3442.90" type="priority"/>
    <node id="10736015902" x="8485.40" y="3476.31" type="priority"/>
    <node id="10736015906" x="8499.61" y="3446.31" type="priority"/>
    <node id="10736015918" x="8489.04" y="3462.07" type="priority"/>
    <node id="10736015920" x="8491.33" y="3464.60" type="priority"/>
    <node id="10736015922" x="8507.82" y="3459.15" type="priority"/>
    <node id="10736015947" x="8294.56" y="3784.32" type="priority"/>
    <node id="10736015948" x="8298.97" y="3786.36" type="priority"/>
    <node id="10736015963" x="8289.32" y="3837.37" type="priority"/>