<edges xmlns:xsi="http://www.w3.org/2001/XMLSchema-instance" version="1.16" xsi:noNamespaceSchemaLocation="http://sumo.dlr.de/xsd/edges_file.xsd">
    <location netOffset="-408034.43,-5419614.36" convBoundary="0.00,0.00,12127.83,9580.44" origBoundary="1.743019,48.923206,2.002758,49.009799" projParameter="+proj=utm +zone=31 +ellps=WGS84 +datum=WGS84 +units=m +no_defs" />

    <edge id="-1010239942" from="9321190808" to="9321190811" priority="3" type="highway.residential" numLanes="1" speed="13.89" shape="4845.85,6566.98 4848.44,6564.54 4849.71,6561.32 4852.19,6509.91 4850.62,6506.71 4848.06,6504.96" disallow="tram rail_urban rail rail_electric rail_fast ship" />
    <edge id="-1028738461" from="715635156" to="715635101" priority="3" type="highway.residential" numLanes="1" speed="8.33" shape="3831.27,4280.60 3797.84,4290.15 3780.54,4295.21" disallow="tram rail_urban rail rail_electric rail_fast ship" />
    <edge id="-1035834385#0" from="8715220482" to="9543579026" priority="3" type="highway.residential" numLanes="1" speed="8.33" disallow="tram rail_urban rail rail_electric rail_fast ship" />
    <edge id="-1035834385#1" from="661081477" to="8715220482" priority="3" type="highway.residential" numLanes="1" speed="8.33" disallow="tram rail_urban rail rail_electric rail_fast ship" />
    <edge id="-1037626503" from="9557930411" to="716689353" priority="4" type="highway.unclassified" numLanes="1" speed="13.89" shape="3622.88,2622.87 3630.39,2634.80 3627.64,2647.92 3624.70,2668.36" disallow="tram rail_urban rail rail_electric rail_fast ship" />
    <edge id="-104290265#0" from="1203324711" to="1203324714" priority="3" type="highway.residential" numLanes="1" speed="8.33" disallow="tram rail_urban rail rail_electric rail_fast ship" />
    <edge id="-104290265#1" from="10736015224" to="1203324711" priority="3" type="highway.residential" numLanes="1" speed="8.33" shape="6601.10,5267.93 6598.21,5270.06 6588.88,5274.95 6557.52,5293.91" disallow="tram rail_urban rail rail_electric rail_fast ship" />
    <edge id="-104290266#0" from="10736015252" to="10736015253" priority="3" type="highway.residential" numLanes="1" speed="8.33" disallow="tram rail_urban rail rail_electric rail_fast ship" />
    <edge id="-104290266#1" from="10736015235" to="10736015252" priority="3" type="highway.residential" numLanes="1" speed="8.33" shape="6323.16,4978.93 6327.61,4974.79 6330.65,4973.99 6349.58,4976.64 6459.79,4992.15 6610.02,5014.08 6620.67,5015.62 6685.68,5025.49 6708.09,5029.18 6711.80,5030.20" disallow="tram rail_urban rail rail_electric rail_fast ship" />
    <edge id="-104290267#0" from="1211788299" to="8508256826" priority="3" type="highway.residential" numLanes="1" speed="8.33" shape="6431.07,5225.46 6382.43,5148.78 6328.38,5117.79 6319.20,5115.72" disallow="tram rail_urban rail rail_electric rail_fast ship" />
    <edge id="-104290267#1" from="1218073770" to="1211788299" priority="3" type="highway.residential" numLanes="1" speed="8.33" shape="6465.33,5238.37 6435.55,5232.53 6431.07,5225.46" disallow="tram rail_urban rail rail_electric rail_fast ship" />
    <edge id="-104290267#2" from="1218073951" to="1218073770" priority="3" type="highway.residential" numLanes="1" speed="8.33" disallow="tram rail_urban rail rail_electric rail_fast ship" />
    <edge id="-104290267#3" from="1203324711" to="1218073951" priority="3" type="highway.residential" numLanes="1" speed="8.33" shape="6557.52,5293.91 6531.65,5251.41 6527.72,5250.64" disallow="tram rail_urban rail rail_electric rail_fast ship" />
    <edge id="-104290269#0" from="1203324683" to="1203324748" priority="3" type="highway.residential" numLanes="1" speed="8.33" disallow="tram rail_urban rail rail_electric rail_fast ship" />
    <edge id="-104290269#1" from="1218073765" to="1203324683" priority="3" type="highway.residential" numLanes="1" speed="8.33" disallow="tram rail_urban rail rail_electric rail_fast ship" />
    <edge id="-104290269#2" from="1203324749" to="1218073765" priority="3" type="highway.residential" numLanes="1" speed="8.33" shape="6624.56,5597.67 6614.57,5586.46 6612.79,5572.40 6617.98,5552.74 6636.38,5548.93 6659.17,5473.80 6671.22,5464.46" disallow="tram rail_urban rail rail_electric rail_fast ship" />
    <edge id="-104290269#3" from="1203324653" to="1203324749" priority="3" type="highway.residential" numLanes="1" speed="8.33" disallow="tram rail_urban rail rail_electric rail_fast ship" />
    <edge id="-104290270#0" from="1203324731" to="2902851384" priority="3" type="highway.residential" numLanes="1" speed="13.89" shape="6494.49,4885.58 6487.30,4879.91 6461.72,4858.70 6451.40,4850.51 6446.89,4847.44 6443.48,4845.54 6439.66,4843.83 6436.11,4842.62 6432.14,4841.76 6427.46,4841.63 6421.08,4842.06 6416.19,4843.17 6410.29,4845.13 6339.00,4879.27 6308.19,4934.95 6306.45,4938.51 6305.49,4941.54 6305.15,4943.14 6303.55,4950.70" disallow="tram rail_urban rail rail_electric rail_fast ship" />
    <edge id="-104290270#1" from="771272887" to="1203324731" priority="3" type="highway.residential" numLanes="1" speed="13.89" shape="6539.38,4901.49 6535.52,4900.75 6523.36,4896.80 6506.81,4891.11 6500.34,4888.62 6494.49,4885.58" disallow="tram rail_urban rail rail_electric rail_fast ship" />
    <edge id="-104290271#0" from="1203324840" to="1203324793" priority="3" type="highway.residential" numLanes="1" speed="8.33" shape="6773.26,5723.78 6864.22,5535.25 6866.89,5530.32" disallow="tram rail_urban rail rail_electric rail_fast ship" />
    <edge id="-104290271#1" from="1218283584" to="1203324840" priority="3" type="highway.residential" numLanes="1" speed="8.33" disallow="tram rail_urban rail rail_electric rail_fast ship" />
    <edge id="-104290272" from="1203324838" to="1203324627" priority="3" type="highway.residential" numLanes="1" speed="8.33" shape="6903.98,5709.51 6867.77,5684.77 6907.70,5599.97 6918.62,5561.31 6920.14,5555.93" disallow="tram rail_urban rail rail_electric rail_fast ship" />
    <edge id="-104290274#0" from="1203324538" to="1203324685" priority="3" type="highway.residential" numLanes="1" speed="8.33" shape="6833.66,5406.83 6856.37,5352.87 6859.67,5344.74 6861.03,5341.42" disallow="tram rail_urban rail rail_electric rail_fast ship" />
    <edge id="-104290274#1" from="1203324809" to="1203324538" priority="3" type="highway.residential" numLanes="1" speed="8.33" shape="6796.66,5496.19 6798.76,5490.87 6833.66,5406.83" disallow="tram rail_urban rail rail_electric rail_fast ship" />
    <edge id="-104290276#0" from="732319361" to="10736015253" priority="3" type="highway.residential" numLanes="1" speed="8.33" shape="6755.51,5112.58 6718.34,5044.49 6716.14,5039.68 6715.32,5037.34 6714.89,5034.60 6715.05,5032.44 6715.38,5031.20" disallow="tram rail_urban rail rail_electric rail_fast ship" />
    <edge id="-104290276#1" from="1203324735" to="732319361" priority="3" type="highway.residential" numLanes="1" speed="8.33" shape="6812.44,5217.21 6772.19,5143.22 6755.51,5112.58" disallow="tram rail_urban rail rail_electric rail_fast ship" />
    <edge id="-104290276#2" from="1203324602" to="1203324735" priority="3" type="highway.residential" numLanes="1" speed="8.33" shape="6858.80,5305.09 6857.05,5301.73 6855.30,5298.38 6812.44,5217.21" disallow="tram rail_urban rail rail_electric rail_fast ship" />
    <edge id="-104290277" from="732318981" to="1203324604" priority="3" type="highway.residential" numLanes="1" speed="8.33" shape="7013.50,5352.43 6896.61,5328.37 6892.67,5327.56 6888.72,5326.74" disallow="tram rail_urban rail rail_electric rail_fast ship" />
    <edge id="-104290279#0" from="1203324771" to="5404969318" priority="3" type="highway.residential" numLanes="1" speed="8.33" shape="6416.38,5045.86 6404.16,5037.15 6367.12,5010.74" disallow="tram rail_urban rail rail_electric rail_fast ship" />
    <edge id="-104290279#1" from="1203324818" to="1203324771" priority="3" type="highway.residential" numLanes="1" speed="8.33" shape="6523.48,5160.41 6517.36,5151.35 6507.10,5136.20 6496.86,5123.21 6484.52,5109.44 6439.42,5067.36 6416.38,5045.86" disallow="tram rail_urban rail rail_electric rail_fast ship" />
    <edge id="-104290279#10" from="1203324627" to="1203324793" priority="3" type="highway.residential" numLanes="1" speed="8.33" shape="6920.14,5555.93 6870.07,5531.85 6866.89,5530.32" disallow="tram rail_urban rail rail_electric rail_fast ship" />
    <edge id="-104290279#11" from="1203324567" to="1203324627" priority="3" type="highway.residential" numLanes="1" speed="8.33" shape="6967.27,5578.50 6923.36,5557.47 6920.14,5555.93" disallow="tram rail_urban rail rail_electric rail_fast ship" />
    <edge id="-104290279#12" from="8688509619" to="1203324567" priority="3" type="highway.residential" numLanes="1" speed="8.33" shape="7002.40,5595.09 6980.59,5584.79 6969.74,5579.68 6967.27,5578.50" disallow="tram rail_urban rail rail_electric rail_fast ship" />
    <edge id="-104290279#13" from="732319191" to="8688509619" priority="3" type="highway.residential" numLanes="1" speed="8.33" disallow="tram rail_urban rail rail_electric rail_fast ship" />
    <edge id="-104290279#2" from="10736015224" to="1203324818" priority="3" type="highway.residential" numLanes="1" speed="8.33" shape="6601.10,5267.93 6595.20,5261.24 6587.21,5252.36 6579.52,5243.84 6568.19,5230.82 6559.06,5218.90 6523.48,5160.41" disallow="tram rail_urban rail rail_electric rail_fast ship" />
    <edge id="-104290279#3" from="1203324610" to="10736015224" priority="3" type="highway.residential" numLanes="1" speed="8.33" disallow="tram rail_urban rail rail_electric rail_fast ship" />
    <edge id="-104290279#4" from="1203324595" to="1203324610" priority="3" type="highway.residential" numLanes="1" speed="8.33" shape="6680.81,5376.78 6664.31,5348.63 6657.40,5337.76 6648.64,5324.86 6633.82,5306.01 6611.45,5280.73 6608.63,5277.55 6605.93,5274.15 6602.77,5269.83" disallow="tram rail_urban rail rail_electric rail_fast ship" />
    <edge id="-104290279#5" from="7556667159" to="1203324595" priority="3" type="highway.residential" numLanes="1" speed="8.33" shape="6738.81,5452.21 6734.69,5448.35 6721.66,5435.44 6697.15,5402.22 6682.60,5379.86 6680.81,5376.78" disallow="tram rail_urban rail rail_electric rail_fast ship" />
    <edge id="-104290279#6" from="11858246557" to="7556667159" priority="3" type="highway.residential" numLanes="1" speed="8.33" shape="6744.10,5456.47 6743.60,5456.06 6738.81,5452.21" disallow="tram rail_urban rail rail_electric rail_fast ship" />
    <edge id="-104290279#7" from="1203324809" to="11858246557" priority="3" type="highway.residential" numLanes="1" speed="8.33" shape="6796.66,5496.19 6783.12,5488.47 6744.10,5456.47" disallow="tram rail_urban rail rail_electric rail_fast ship" />
    <edge id="-104290279#8" from="1203324741" to="1203324809" priority="3" type="highway.residential" numLanes="1" speed="8.33" disallow="tram rail_urban rail rail_electric rail_fast ship" />
    <edge id="-104290279#9" from="1203324793" to="1203324741" priority="3" type="highway.residential" numLanes="1" speed="8.33" shape="6866.89,5530.32 6845.50,5520.10 6804.98,5500.83" disallow="tram rail_urban rail rail_electric rail_fast ship" />
    <edge id="-104290280#0" from="1203324709" to="1203324585" priority="3" type="highway.residential" numLanes="1" speed="8.33" shape="6927.64,5427.82 6883.60,5346.55 6881.74,5343.12 6879.87,5339.70" disallow="tram rail_urban rail rail_electric rail_fast ship" />
    <edge id="-104290282" from="732318939" to="1203324625" priority="3" type="highway.residential" numLanes="1" speed="8.33" shape="6904.53,5237.76 6880.79,5293.77 6878.50,5298.81 6876.21,5303.85" disallow="tram rail_urban rail rail_electric rail_fast ship" />
    <edge id="-104290283#0" from="10736015236" to="1203324746" priority="4" type="highway.unclassified" numLanes="1" speed="13.89" shape="6282.89,4965.84 6281.48,4965.72 6278.15,4965.44 6270.96,4964.60 6224.16,4957.19" disallow="tram rail_urban rail rail_electric rail_fast ship" />
    <edge id="-104290283#1" from="2902851375" to="10736015236" priority="4" type="highway.unclassified" numLanes="1" speed="13.89" shape="6291.57,4966.11 6288.10,4966.18 6284.17,4965.95 6282.89,4965.84" disallow="tram rail_urban rail rail_electric rail_fast ship" />
    <edge id="-104290285#0" from="1203324538" to="1203324595" priority="3" type="highway.residential" numLanes="1" speed="8.33" shape="6833.66,5406.83 6687.92,5375.87 6683.70,5375.83 6680.81,5376.78" disallow="tram rail_urban rail rail_electric rail_fast ship" />
    <edge id="-104290285#1" from="1203324709" to="1203324538" priority="3" type="highway.residential" numLanes="1" speed="8.33" disallow="tram rail_urban rail rail_electric rail_fast ship" />
    <edge id="-104290285#2" from="732452425" to="1203324709" priority="3" type="highway.residential" numLanes="1" speed="8.33" disallow="tram rail_urban rail rail_electric rail_fast ship" />
    <edge id="-104290286" from="1203324550" to="1203324749" priority="3" type="highway.residential" numLanes="1" speed="8.33" shape="6677.77,5585.10 6675.11,5591.41 6680.69,5596.40 6672.24,5608.68 6624.56,5597.67" disallow="tram rail_urban rail rail_electric rail_fast ship" />
    <edge id="-104290289" from="1203324610" to="1203324716" priority="3" type="highway.residential" numLanes="1" speed="8.33" shape="6602.77,5269.83 6605.72,5268.13 6608.45,5266.95 6610.90,5266.73 6613.12,5266.88 6622.86,5268.87 6842.04,5316.41 6845.56,5317.16 6849.07,5317.93" disallow="tram rail_urban rail rail_electric rail_fast ship" />
    <edge id="-104290290" from="1203324651" to="1203324521" priority="3" type="highway.residential" numLanes="1" speed="8.33" shape="6602.73,5787.10 6585.58,5826.12 6578.49,5845.10" disallow="tram rail_urban rail rail_electric rail_fast ship" />
    <edge id="-104290291#0" from="1203324735" to="1203324818" priority="3" type="highway.residential" numLanes="1" speed="8.33" shape="6812.44,5217.21 6537.65,5159.36 6530.46,5158.27 6527.86,5158.71 6525.55,5159.61 6523.48,5160.41" disallow="tram rail_urban rail rail_electric rail_fast ship" />
    <edge id="-104290291#1" from="732318939" to="1203324735" priority="3" type="highway.residential" numLanes="1" speed="8.33" disallow="tram rail_urban rail rail_electric rail_fast ship" />
    <edge id="-104290293#0" from="1203324838" to="1203324664" priority="3" type="highway.residential" numLanes="1" speed="8.33" disallow="tram rail_urban rail rail_electric rail_fast ship" />
    <edge id="-104290293#1" from="1203324567" to="1203324838" priority="3" type="highway.residential" numLanes="1" speed="8.33" shape="6967.27,5578.50 6964.34,5585.32 6903.98,5709.51" disallow="tram rail_urban rail rail_electric rail_fast ship" />
    <edge id="-104290294" from="1218073953" to="1203324741" priority="3" type="highway.residential" numLanes="1" speed="8.33" shape="6729.63,5640.33 6802.68,5505.27 6804.98,5500.83" disallow="tram rail_urban rail rail_electric rail_fast ship" />
    <edge id="-104290295#0" from="10588644298" to="1203324746" priority="4" type="highway.unclassified" numLanes="1" speed="13.89" shape="6004.44,4908.20 6008.96,4909.28 6119.20,4935.91 6224.16,4957.19" disallow="tram rail_urban rail rail_electric rail_fast ship" />
    <edge id="-104290295#1" from="1203324770" to="10588644298" priority="4" type="highway.unclassified" numLanes="1" speed="13.89" disallow="tram rail_urban rail rail_electric rail_fast ship" />
    <edge id="-104290296#0" from="1218073786" to="1203324711" priority="3" type="highway.residential" numLanes="1" speed="8.33" disallow="tram rail_urban rail rail_electric rail_fast ship" />
    <edge id="-104290296#1" from="1203324767" to="1218073786" priority="3" type="highway.residential" numLanes="1" speed="8.33" disallow="tram rail_urban rail rail_electric rail_fast ship" />
    <edge id="-104290296#2" from="1203324820" to="1203324767" priority="3" type="highway.residential" numLanes="1" speed="8.33" shape="6574.98,5444.92 6581.49,5437.49 6627.53,5408.90" disallow="tram rail_urban rail rail_electric rail_fast ship" />
    <edge id="-104290296#3" from="1203324653" to="1203324820" priority="3" type="highway.residential" numLanes="1" speed="8.33" shape="6612.59,5636.21 6610.09,5634.75 6568.21,5610.27 6570.50,5478.80 6570.84,5456.06 6574.98,5444.92" disallow="tram rail_urban rail rail_electric rail_fast ship" />
    <edge id="-104290297" from="10735976583" to="732319333" priority="3" type="highway.residential" numLanes="1" speed="13.89" shape="7183.99,5202.76 7180.91,5202.03 7174.80,5200.56 6939.98,5151.65" disallow="tram rail_urban rail rail_electric rail_fast ship" />
    <edge id="-104290298#0" from="1211788199" to="1203324724" priority="3" type="highway.residential" numLanes="1" speed="13.89" shape="6411.99,4910.02 6322.03,4948.87 6314.34,4952.18 6308.57,4954.58" disallow="tram rail_urban rail rail_electric rail_fast ship" />
    <edge id="-104290298#1" from="1203324821" to="1211788199" priority="3" type="highway.residential" numLanes="1" speed="13.89" shape="6463.33,4885.60 6457.73,4891.43 6451.80,4895.82 6440.59,4900.50 6411.99,4910.02" disallow="tram rail_urban rail rail_electric rail_fast ship" />
    <edge id="-104290299" from="732319384" to="1203324668" priority="3" type="highway.residential" numLanes="1" speed="13.89" shape="6992.45,5829.96 7040.27,5821.87 7062.21,5792.96 7078.71,5793.09 7104.74,5801.31 7123.20,5827.26 7151.40,5841.32" disallow="tram rail_urban rail rail_electric rail_fast ship" />
    <edge id="-105142724" from="1211788189" to="1203324699" priority="3" type="highway.residential" numLanes="1" speed="8.33" shape="6640.73,5707.76 6629.72,5702.49 6650.60,5656.77" disallow="tram rail_urban rail rail_electric rail_fast ship" />
    <edge id="-105142727#0" from="1211788317" to="1211788299" priority="3" type="highway.residential" numLanes="1" speed="8.33" disallow="tram rail_urban rail rail_electric rail_fast ship" />
    <edge id="-105142727#1" from="1211788246" to="1211788317" priority="3" type="highway.residential" numLanes="1" speed="8.33" disallow="tram rail_urban rail rail_electric rail_fast ship" />
    <edge id="-105142727#2" from="1211788317" to="1211788246" priority="3" type="highway.residential" numLanes="1" speed="8.33" shape="6410.65,5237.86 6414.17,5244.40 6407.56,5249.00 6403.34,5242.22" disallow="tram rail_urban rail rail_electric rail_fast ship" />
    <edge id="-105142729#0" from="1203324699" to="1203324653" priority="3" type="highway.residential" numLanes="1" speed="8.33" disallow="tram rail_urban rail rail_electric rail_fast ship" />
    <edge id="-105142729#1" from="1203324762" to="1203324699" priority="3" type="highway.residential" numLanes="1" speed="8.33" disallow="tram rail_urban rail rail_electric rail_fast ship" />
    <edge id="-105142732" from="1211788172" to="1211788199" priority="3" type="highway.residential" numLanes="1" speed="13.89" disallow="tram rail_urban rail rail_electric rail_fast ship" />
    <edge id="-105142734#0" from="1203324748" to="1203324595" priority="3" type="highway.residential" numLanes="1" speed="8.33" shape="6648.95,5396.43 6673.04,5379.62 6676.11,5378.15 6680.81,5376.78" disallow="tram rail_urban rail rail_electric rail_fast ship" />
    <edge id="-105142734#1" from="1218073930" to="1203324748" priority="3" type="highway.residential" numLanes="1" speed="8.33" disallow="tram rail_urban rail rail_electric rail_fast ship" />
    <edge id="-105142734#2" from="1203324767" to="1218073930" priority="3" type="highway.residential" numLanes="1" speed="8.33" disallow="tram rail_urban rail rail_electric rail_fast ship" />
    <edge id="-105142735" from="1211788204" to="1211788246" priority="3" type="highway.residential" numLanes="1" speed="8.33" shape="6382.25,5255.15 6384.67,5253.86 6403.34,5242.22" disallow="tram rail_urban rail rail_electric rail_fast ship" />
    <edge id="-105142736" from="1203324531" to="1203324820" priority="3" type="highway.residential" numLanes="1" speed="8.33" disallow="tram rail_urban rail rail_electric rail_fast ship" />
    <edge id="-105142738" from="1211788175" to="10736015252" priority="3" type="highway.residential" numLanes="1" speed="8.33" shape="6673.38,4965.76 6713.50,5002.65 6714.64,5013.16 6713.67,5023.48 6712.96,5026.36 6711.80,5030.20" disallow="tram rail_urban rail rail_electric rail_fast ship" />
    <edge id="-105156550" from="1211909497" to="1211909470" priority="3" type="highway.residential" numLanes="1" speed="13.89" shape="5473.62,3421.93 5502.57,3439.69 5506.99,3446.28 5552.03,3475.52" disallow="tram rail_urban rail rail_electric rail_fast ship" />
    <edge id="-105156554" from="1211909342" to="1211909554" priority="3" type="highway.residential" numLanes="1" speed="13.89" shape="5585.62,3146.99 5591.78,3164.13 5605.80,3181.54 5625.43,3206.69 5629.64,3227.56" disallow="tram rail_urban rail rail_electric rail_fast ship" />
    <edge id="-105156555" from="1211909529" to="1211909475" priority="3" type="highway.residential" numLanes="1" speed="8.33" shape="5412.03,3124.22 5446.86,3165.99 5485.51,3201.42 5551.06,3263.63" disallow="tram rail_urban rail rail_electric rail_fast ship" />
    <edge id="-105156557#0" from="1211909475" to="824463198" priority="3" type="highway.residential" numLanes="1" speed="13.89" shape="5551.06,3263.63 5529.54,3279.86 5486.29,3326.59 5482.03,3332.58" disallow="tram rail_urban rail rail_electric rail_fast ship" />
    <edge id="-105156557#1" from="1211909405" to="1211909475" priority="3" type="highway.residential" numLanes="1" speed="13.89" shape="5618.75,3231.08 5583.51,3244.95 5551.06,3263.63" disallow="tram rail_urban rail rail_electric rail_fast ship" />
    <edge id="-105156557#2" from="1211909554" to="1211909405" priority="3" type="highway.residential" numLanes="1" speed="13.89" disallow="tram rail_urban rail rail_electric rail_fast ship" />
    <edge id="-105156557#3" from="1211909566" to="1211909554" priority="3" type="highway.residential" numLanes="1" speed="13.89" shape="5714.90,3200.21 5692.62,3207.21 5629.64,3227.56" disallow="tram rail_urban rail rail_electric rail_fast ship" />
    <edge id="-105156564#0" from="1211909471" to="1211909447" priority="3" type="highway.residential" numLanes="1" speed="8.33" shape="5845.48,3314.95 5811.91,3401.99 5811.60,3407.74 5813.27,3413.72 5835.96,3431.25 5838.60,3432.85" disallow="tram rail_urban rail rail_electric rail_fast ship" />
    <edge id="-105156564#1" from="1211909325" to="1211909471" priority="3" type="highway.residential" numLanes="1" speed="8.33" shape="5832.05,3276.67 5841.29,3275.81 5849.32,3280.77 5854.19,3291.27 5848.55,3307.02 5845.48,3314.95" disallow="tram rail_urban rail rail_electric rail_fast ship" />
    <edge id="-105156564#2" from="1211909421" to="1211909325" priority="3" type="highway.residential" numLanes="1" speed="8.33" disallow="tram rail_urban rail rail_electric rail_fast ship" />
    <edge id="-105156565#0" from="1211909337" to="1211909350" priority="3" type="highway.residential" numLanes="1" speed="13.89" shape="5623.51,3499.55 5615.54,3493.16 5592.66,3473.54 5608.80,3451.65 5622.11,3435.64 5624.63,3432.62" disallow="tram rail_urban rail rail_electric rail_fast ship" />
    <edge id="-105156565#1" from="1211909477" to="1211909337" priority="3" type="highway.residential" numLanes="1" speed="13.89" shape="5615.62,3562.58 5613.50,3550.97 5623.51,3499.55" disallow="tram rail_urban rail rail_electric rail_fast ship" />
    <edge id="-105156565#2" from="1211909473" to="1211909477" priority="3" type="highway.residential" numLanes="1" speed="13.89" disallow="tram rail_urban rail rail_electric rail_fast ship" />
    <edge id="-105156566#0" from="1211909350" to="3513500306" priority="3" type="highway.residential" numLanes="1" speed="13.89" disallow="tram rail_urban rail rail_electric rail_fast ship" />
    <edge id="-105156566#1" from="1211909359" to="1211909350" priority="3" type="highway.residential" numLanes="1" speed="13.89" shape="5599.52,3412.52 5608.10,3419.42 5624.63,3432.62" disallow="tram rail_urban rail rail_electric rail_fast ship" />
    <edge id="-105156566#2" from="8665392410" to="1211909359" priority="3" type="highway.residential" numLanes="1" speed="13.89" shape="5500.49,3341.02 5524.07,3358.04 5538.46,3368.44 5593.22,3407.97 5599.52,3412.52" disallow="tram rail_urban rail rail_electric rail_fast ship" />
    <edge id="-105156566#3" from="824463198" to="8665392410" priority="3" type="highway.residential" numLanes="1" speed="13.89" shape="5482.03,3332.58 5489.41,3334.37 5493.24,3335.81 5500.49,3341.02" disallow="tram rail_urban rail rail_electric rail_fast ship" />
    <edge id="-105156570#0" from="1211909343" to="1211909331" priority="3" type="highway.residential" numLanes="1" speed="8.33" shape="5833.89,3453.19 5830.27,3458.19 5781.36,3544.99 5778.11,3551.13 5776.73,3553.74" disallow="tram rail_urban rail rail_electric rail_fast ship" />
    <edge id="-105156570#1" from="1211909282" to="1211909343" priority="3" type="highway.residential" numLanes="1" speed="8.33" shape="5868.41,3401.68 5860.67,3413.23 5841.93,3441.20 5833.89,3453.19" disallow="tram rail_urban rail rail_electric rail_fast ship" />
    <edge id="-105156570#2" from="8807432991" to="1211909282" priority="3" type="highway.residential" numLanes="1" speed="8.33" shape="5914.08,3296.60 5911.87,3303.37 5906.00,3321.32 5892.06,3356.53 5882.40,3378.29 5874.61,3391.32 5868.41,3401.68" disallow="tram rail_urban rail rail_electric rail_fast ship" />
    <edge id="-105156570#3" from="661081636" to="8807432991" priority="3" type="highway.residential" numLanes="1" speed="8.33" shape="5948.96,3184.75 5915.11,3293.46 5914.08,3296.60" disallow="tram rail_urban rail rail_electric rail_fast ship" />
    <edge id="-105156574#0" from="1211909470" to="1211909359" priority="3" type="highway.residential" numLanes="1" speed="13.89" shape="5552.03,3475.52 5555.88,3465.94 5597.11,3415.47 5599.52,3412.52" disallow="tram rail_urban rail rail_electric rail_fast ship" />
    <edge id="-105156574#1" from="1211909372" to="1211909470" priority="3" type="highway.residential" numLanes="1" speed="13.89" disallow="tram rail_urban rail rail_electric rail_fast ship" />
    <edge id="-105461860#0" from="1214697884" to="1214697955" priority="3" type="highway.residential" numLanes="1" speed="13.89" shape="7005.34,5869.10 7029.97,5865.50 7062.97,5866.56 7079.67,5890.50" disallow="tram rail_urban rail rail_electric rail_fast ship" />
    <edge id="-105461860#1" from="1214697802" to="1214697884" priority="3" type="highway.residential" numLanes="1" speed="13.89" disallow="tram rail_urban rail rail_electric rail_fast ship" />
    <edge id="-105461860#2" from="1214697936" to="1214697802" priority="3" type="highway.residential" numLanes="1" speed="13.89" shape="6884.21,5890.28 6888.56,5887.23 6905.92,5867.01 6920.81,5864.82 6940.26,5878.61" disallow="tram rail_urban rail rail_electric rail_fast ship" />
    <edge id="-105461862" from="1214697884" to="1214697802" priority="3" type="highway.residential" numLanes="1" speed="13.89" shape="7005.34,5869.10 6954.97,5890.53 6940.26,5878.61" disallow="tram rail_urban rail rail_electric rail_fast ship" />
    <edge id="-105462317" from="10736015550" to="1214710487" priority="3" type="highway.residential" numLanes="1" speed="13.89" shape="7448.53,5838.26 7442.54,5834.11 7439.03,5831.84 7308.88,5748.90 7305.04,5746.23 7300.96,5743.95" disallow="tram rail_urban rail rail_electric rail_fast ship" />
    <edge id="-105462319#0" from="8422048917" to="1214710513" priority="3" type="highway.residential" numLanes="1" speed="13.89" shape="7212.95,5796.86 7280.41,5748.71 7285.96,5744.11 7287.30,5744.07" disallow="tram rail_urban rail rail_electric rail_fast ship" />
    <edge id="-105462319#1" from="1203324668" to="8422048917" priority="3" type="highway.residential" numLanes="1" speed="13.89" disallow="tram rail_urban rail rail_electric rail_fast ship" />
    <edge id="-105783596" from="1218073966" to="1218073770" priority="3" type="highway.residential" numLanes="1" speed="8.33" disallow="tram rail_urban rail rail_electric rail_fast ship" />
    <edge id="-105783608#0" from="1203324719" to="1203324762" priority="3" type="highway.residential" numLanes="1" speed="8.33" disallow="tram rail_urban rail rail_electric rail_fast ship" />
    <edge id="-105783608#1" from="1203324840" to="1203324719" priority="3" type="highway.residential" numLanes="1" speed="8.33" disallow="tram rail_urban rail rail_electric rail_fast ship" />
    <edge id="-105783608#2" from="1203324664" to="1203324840" priority="3" type="highway.residential" numLanes="1" speed="8.33" shape="6874.57,5770.01 6814.89,5744.69 6778.12,5728.02 6773.26,5723.78" disallow="tram rail_urban rail rail_electric rail_fast ship" />
    <edge id="-105783608#3" from="1203324666" to="1203324664" priority="3" type="highway.residential" numLanes="1" speed="8.33" disallow="tram rail_urban rail rail_electric rail_fast ship" />
    <edge id="-105783609" from="1218073926" to="1218073951" priority="3" type="highway.residential" numLanes="1" speed="8.33" shape="6510.61,5206.91 6519.59,5221.85 6529.04,5237.83 6527.72,5250.64" disallow="tram rail_urban rail rail_electric rail_fast ship" />
    <edge id="-105783611" from="1218073930" to="1218073786" priority="3" type="highway.residential" numLanes="1" speed="8.33" shape="6643.10,5399.83 6634.87,5385.86 6618.51,5394.08" disallow="tram rail_urban rail rail_electric rail_fast ship" />
    <edge id="-105783612#0" from="732319384" to="5404969320" priority="3" type="highway.residential" numLanes="1" speed="13.89" shape="6992.45,5829.96 6964.28,5833.60 6941.23,5826.47" disallow="tram rail_urban rail rail_electric rail_fast ship" />
    <edge id="-105783612#1" from="732319216" to="732319384" priority="3" type="highway.residential" numLanes="1" speed="13.89" shape="7085.61,5635.44 7082.29,5642.36 6992.45,5829.96" disallow="tram rail_urban rail rail_electric rail_fast ship" />