<configuration>
  <input>
    <net-file value="cologne8.net.xml"/>
	<route-files value="rou.rou.xml"/>
  </input>
    <report>
        <no-step-log value="true"/>
    </report>

    <processing>
        <time-to-teleport value="-1"/>
    </processing>

    <output>
        <summary-output value="summary.xml"/>
        <tripinfo-output value="tripinfo.xml"/>
    </output>
</configuration>
