<routes>
<route id="0_0_0" edges="
top0A3 A3A2 A2A1 A1B1 B1C1 C1D1 D1D0 D0bottom3
" />
<route id="0_0_1" edges="
top0A3 A3A2 A2A1 A1B1 B1C1 C1C0 C0D0 D0bottom3
" />
<route id="0_0_2" edges="
top0A3 A3B3 B3C3 C3D3 D3D2 D2D1 D1D0 D0bottom3
" />
<route id="1_0_0" edges="
left0A0 A0B0 B0C0 C0D0 D0bottom3
" />
<route id="1_0_1" edges="
left0A0 A0B0 B0B1 B1C1 C1C0 C0D0 D0bottom3
" />
<route id="1_0_2" edges="
left0A0 A0B0 B0B1 B1C1 C1D1 D1D0 D0bottom3
" />
<route id="0_1_0" edges="
top0A3 A3B3 B3C3 C3D3 D3right3
" />
<route id="0_1_1" edges="
top0A3 A3B3 B3B2 B2C2 C2C3 C3D3 D3right3
" />
<route id="0_1_2" edges="
top0A3 A3B3 B3B2 B2C2 C2D2 D2D3 D3right3
" />
<route id="1_1_0" edges="
left0A0 A0B0 B0C0 C0D0 D0D1 D1D2 D2D3 D3right3
" />
<route id="1_1_1" edges="
left0A0 A0B0 B0C0 C0C1 C1D1 D1D2 D2D3 D3right3
" />
<route id="1_1_2" edges="
left0A0 A0B0 B0C0 C0C1 C1C2 C2D2 D2D3 D3right3
" />
</routes>
