<routes>
<route id="0_0_0" edges="
top1B3 B3B2 B2B1 B1B0 B0C0 C0bottom2
" />
<route id="0_0_1" edges="
top1B3 B3B2 B2B1 B1C1 C1C0 C0bottom2
" />
<route id="0_0_2" edges="
top1B3 B3C3 C3D3 D3D2 D2D1 D1C1 C1C0 C0bottom2
" />
<route id="1_0_0" edges="
C3D3 D3D2 D2D1 D1D0 D0C0 C0bottom2
" />
<route id="1_0_1" edges="
C3D3 D3D2 D2D1 D1C1 C1C0 C0bottom2
" />
<route id="1_0_2" edges="
C3D3 D3D2 D2C2 C2C1 C1C0 C0bottom2
" />
<route id="0_1_0" edges="
top1B3 B3B2 B2C2 C2C1 C1C0 C0D0
" />
<route id="0_1_1" edges="
top1B3 B3B2 B2B1 B1B0 B0C0 C0D0
" />
<route id="0_1_2" edges="
top1B3 B3A3 A3A2 A2A1 A1A0 A0B0 B0C0 C0D0
" />
<route id="1_1_0" edges="
C3D3 D3D2 D2D1 D1C1 C1C0 C0D0
" />
<route id="1_1_1" edges="
C3D3 D3D2 D2C2 C2C1 C1C0 C0D0
" />
<route id="1_1_2" edges="
C3D3 D3D2 D2C2 C2B2 B2B1 B1B0 B0C0 C0D0
" />
</routes>
