<routes>
<route id="0_0_0" edges="
np13_nt13 nt13_nt9 nt9_nt5 nt5_nt1 nt1_np1
" />
<route id="0_0_1" edges="
np13_nt13 nt13_np12 np12_nt13 nt13_nt9 nt9_nt5 nt5_nt1 nt1_np1
" />
<route id="0_0_2" edges="
np13_nt13 nt13_nt14 nt14_nt10 nt10_nt6 nt6_nt5 nt5_nt1 nt1_np1
" />
<route id="1_0_0" edges="
np8_nt16 nt16_nt15 nt15_nt11 nt11_nt10 nt10_nt6 nt6_nt5 nt5_nt1 nt1_np1
" />
<route id="1_0_1" edges="
np8_nt16 nt16_nt15 nt15_nt11 nt11_nt10 nt10_nt9 nt9_nt5 nt5_np15 np15_nt5 nt5_nt1 nt1_np1
" />
<route id="1_0_2" edges="
np8_nt16 nt16_nt12 nt12_np7 np7_nt12 nt12_nt11 nt11_nt10 nt10_nt6 nt6_nt5 nt5_nt1 nt1_np1
" />
<route id="0_1_0" edges="
np13_nt13 nt13_nt14 nt14_nt15 nt15_nt11 nt11_nt7 nt7_nt3 nt3_nt4 nt4_np4
" />
<route id="0_1_1" edges="
np13_nt13 nt13_nt14 nt14_nt15 nt15_nt16 nt16_nt12 nt12_nt8 nt8_nt4 nt4_np4
" />
<route id="0_1_2" edges="
np13_nt13 nt13_nt14 nt14_nt10 nt10_nt6 nt6_nt7 nt7_nt8 nt8_nt4 nt4_np4
" />
<route id="1_1_0" edges="
np8_nt16 nt16_nt12 nt12_nt8 nt8_nt4 nt4_np4
" />
<route id="1_1_1" edges="
np8_nt16 nt16_nt15 nt15_nt11 nt11_nt7 nt7_nt3 nt3_nt4 nt4_np4
" />
<route id="1_1_2" edges="
np8_nt16 nt16_nt12 nt12_np7 np7_nt12 nt12_nt8 nt8_nt4 nt4_np4
" />
</routes>
