<routes>
<route id="0_0_0" edges="
279952229#0 279952229#1 279952229#2 -115604048#1 -115602933#3 -115602933#2
" />
<route id="0_0_1" edges="
279952229#0 279952229#1 -115604043#1 -115602933#4 -115602933#3 -115602933#2
" />
<route id="0_0_2" edges="
279952229#0 279952229#1 -279952229#1 -115604051#1 -115602933#5 -115602933#4 -115602933#3 -115602933#2
" />
<route id="1_0_0" edges="
115604053 -154551772#9 -154551772#8 115604050#0 -115602933#2
" />
<route id="1_0_1" edges="
115604053 154551772#10 115604047#0 115602933#2 -115602933#2
" />
<route id="1_0_2" edges="
115604053 154551772#10 -154551772#10 154551772#10 115604047#0 115602933#2 -115602933#2
" />
<route id="0_1_0" edges="
279952229#0 115604051#2 441496282#1 -441496282#1
" />
<route id="0_1_1" edges="
279952229#0 279952229#1 115604043#2 -441496282#1
" />
<route id="0_1_2" edges="
279952229#0 115604051#2 -441496282#0 441496282#0 441496282#1 -441496282#1
" />
<route id="1_1_0" edges="
115604053 -154551772#9 -154551772#8 -154551772#7 -154551772#6 -154551772#5 154551772#5 115604048#0 115602933#4 115604043#1 115604043#2 -441496282#1
" />
<route id="1_1_1" edges="
115604053 -154551772#9 154551772#9 154551772#10 115604047#0 115602933#2 115604050#1 -279952229#3 -279952229#2 115604043#2 -441496282#1
" />
<route id="1_1_2" edges="
115604053 -154551772#9 -154551772#8 115604050#0 -115602933#2 115604047#1 -279952229#4 -279952229#3 115604048#2 -441496282#2 -441496282#1
" />
</routes>
