<routes>
<route id="1" edges="
279952229#0 279952229#1 115604043#2 441496282#2 441496282#3 441496282#4 -115604047#2 -279952229#4 -115604050#1 -115602933#2
" />
<route id="1" edges="
279952229#0 279952229#1 -115604043#1 -115604043#0 154551772#4 154551772#5 115604048#0 -115602933#3 -115602933#2
" />
<route id="1" edges="
279952229#0 -115604051#1 -115602933#5 -115602933#4 115604048#1 279952229#3 -115604050#1 -115602933#2
" />
<route id="1" edges="
115604053 154551772#10 115604047#0 -115602933#1 -115602933#0 819269916#1 819269916#2 -830639075 -107956981#1 -107956998#0 -115604057#1 -279952229#5 -115604047#1 115602933#2 115604050#1 -279952229#3 -279952229#2 115604043#2 -441496282#1
" />
<route id="1" edges="
115604053 -154551772#9 -154551772#8 115604050#0 -115602933#2 115604047#1 115604047#2 -441496282#4 -115604050#2 -115604050#1 115602933#3 -115604048#0 -154551772#5 -154551772#4 115604043#0 115602933#5 115604051#1 115604051#2 441496282#1 -441496282#1
" />
<route id="1" edges="
115604053 -154551772#9 -154551772#8 -154551772#7 -154551772#6 115604048#0 115602933#4 115604043#1 115604043#2 -441496282#1
" />
</routes>
