<routes>
<route id="1" edges="
<<<<<<< HEAD
279952229#0 279952229#1 279952229#2 115604048#2 441496282#3 -115604050#2 -279952229#3 -115604048#1 -115602933#3 -115602933#2
" />
<route id="1" edges="
279952229#0 279952229#1 -115604043#1 -115604043#0 -154551772#3 -154551772#2 115604051#0 -115602933#5 -115602933#4 -115604048#0 154551772#6 154551772#7 115604050#0 -115602933#2
" />
<route id="1" edges="
279952229#0 279952229#1 115604043#2 441496282#2 -115604048#2 279952229#3 -115604050#1 -115602933#2
" />
<route id="1" edges="
115604053 154551772#10 115604047#0 115604047#1 279952229#5 -115604057#0 115604059#1 -115604047#3 -441496282#4 -441496282#3 -441496282#2 -441496282#1
" />
<route id="1" edges="
115604053 154551772#10 154551772#11 115604049 115602933#1 115604047#1 -279952229#4 -115604050#1 115602933#3 115602933#4 115604043#1 -279952229#1 115604051#2 441496282#1 -441496282#1
" />
<route id="1" edges="
115604053 -154551772#9 -154551772#8 115604050#0 115604050#1 115604050#2 -441496282#3 -115604048#2 -279952229#2 115604043#2 -441496282#1
=======
279952229#0 279952229#1 -115604043#1 -115602933#4 -115602933#3 -115602933#2
" />
<route id="1" edges="
279952229#0 279952229#1 279952229#2 -115604048#1 -115604048#0 -154551772#5 -154551772#4 115604043#0 -115602933#4 -115602933#3 -115602933#2
" />
<route id="1" edges="
279952229#0 115604051#2 441496282#1 441496282#2 -115604048#2 -279952229#2 -115604043#1 -115602933#4 -115604048#0 154551772#6 154551772#7 115604050#0 -115602933#2
" />
<route id="1" edges="
115604053 -154551772#9 -154551772#8 115604050#0 115602933#3 115604048#1 -279952229#2 115604043#2 -441496282#1
" />
<route id="1" edges="
115604053 154551772#10 115604047#0 115602933#2 -115604050#0 -154551772#7 -154551772#6 -154551772#5 -154551772#4 115604043#0 115602933#5 115604051#1 115604051#2 441496282#1 -441496282#1
" />
<route id="1" edges="
115604053 154551772#10 154551772#11 115604049 -115602933#0 819269916#1 819269916#2 -410338471 -279952229#6 -279952229#5 -279952229#4 -279952229#3 115604048#2 -441496282#2 -441496282#1
>>>>>>> 722300ba6f0a29e11e68c62c78174ce6b4dbb4d9
" />
</routes>
