<routes>
<route id="0_0_0" edges="
441496282#0 441496282#1 441496282#2 441496282#3 441496282#4 -115604047#2 279952229#5 115604057#1 -115604057#1
" />
<route id="0_0_1" edges="
441496282#0 -115604051#2 279952229#1 279952229#2 279952229#3 279952229#4 279952229#5 115604057#1 -115604057#1
" />
<route id="0_0_2" edges="
441496282#0 441496282#1 441496282#2 441496282#3 -115604050#2 279952229#4 279952229#5 -115604057#0 115604057#0 115604057#1 -115604057#1
" />
<route id="1_0_0" edges="
154551772#1 115604051#0 115604051#1 279952229#1 279952229#2 279952229#3 279952229#4 115604047#2 -115604047#2 279952229#5 115604057#1 -115604057#1
" />
<route id="1_0_1" edges="
154551772#1 115604051#0 -115602933#5 115604043#1 279952229#2 279952229#3 279952229#4 115604047#2 -115604047#2 279952229#5 115604057#1 -115604057#1
" />
<route id="1_0_2" edges="
154551772#1 154551772#2 154551772#3 115604043#0 -115602933#4 -115602933#3 115604050#1 279952229#4 -115604047#1 115604047#1 279952229#5 115604057#1 -115604057#1
" />
<route id="0_1_0" edges="
441496282#0 -115604051#2 279952229#1 279952229#2 279952229#3 279952229#4 -279952229#4
" />
<route id="0_1_1" edges="
441496282#0 441496282#1 441496282#2 441496282#3 -115604050#2 279952229#4 -279952229#4
" />
<route id="0_1_2" edges="
441496282#0 441496282#1 441496282#2 -115604048#2 279952229#3 279952229#4 -279952229#4
" />
<route id="1_1_0" edges="
154551772#1 115604051#0 -115602933#5 -115602933#4 -115602933#3 115604050#1 279952229#4 -279952229#4
" />
<route id="1_1_1" edges="
154551772#1 115604051#0 -115602933#5 -115602933#4 115604048#1 279952229#3 279952229#4 -279952229#4
" />
<route id="1_1_2" edges="
154551772#1 115604051#0 115604051#1 279952229#1 279952229#2 279952229#3 279952229#4 -279952229#4
" />
</routes>
