<routes>
<route id="1" edges="
279952229#0 279952229#1 -115604043#1 -115604043#0 154551772#4 154551772#5 115604048#0 -115602933#3 -115602933#2
" />
<route id="1" edges="
279952229#0 279952229#1 -115604043#1 -115602933#4 115604048#1 -279952229#2 115604043#2 441496282#2 441496282#3 441496282#4 115604047#3 -115604059#1 115604057#0 115604057#1 819269916#2 -410338471 -279952229#6 -279952229#5 -115604047#1 115602933#2 -115602933#2
" />
<route id="1" edges="
279952229#0 -115604051#1 -115604051#0 154551772#2 154551772#3 154551772#4 154551772#5 154551772#6 154551772#7 115604050#0 -115602933#2
" />
<route id="1" edges="
115604053 154551772#10 154551772#11 115604049 115602933#1 115604047#1 -279952229#4 -279952229#3 115604048#2 -441496282#2 -441496282#1
" />
<route id="1" edges="
115604053 -154551772#9 -154551772#8 -154551772#7 -154551772#6 115604048#0 115604048#1 279952229#3 115604050#2 -441496282#3 -441496282#2 -441496282#1
" />
<route id="1" edges="
115604053 154551772#10 115604047#0 -115602933#1 -115602933#0 819269916#1 -115604057#1 279952229#6 410338471 -830639075 -830639078 -107957003#2 -107957003#1 -107956998#1 107956981#1 830639074 830639076#0 830639076#1 -262678375#3 -262678375#2 -107956991#1 474402394#1 -331495841#4 -331495841#3 -331495841#2 115604059#0 115604059#1 -115604047#3 -441496282#4 -115604050#2 -115604050#1 115602933#3 -115604048#0 -154551772#5 -154551772#4 115604043#0 115604043#1 279952229#2 -115604048#1 115602933#4 115602933#5 115604051#1 279952229#1 115604043#2 -441496282#1
" />
</routes>
