<?xml version="1.0" encoding="UTF-8"?>

<!-- generated on 2025-02-05 23:49:52 by Eclipse SUMO netconvert Version 1.19.0
<configuration xmlns:xsi="http://www.w3.org/2001/XMLSchema-instance" xsi:noNamespaceSchemaLocation="http://sumo.dlr.de/xsd/netconvertConfiguration.xsd">

    <input>
        <sumo-net-file value="a10kw.net.xml"/>
    </input>

    <output>
        <plain-output-prefix value="a10kw"/>
        <output.street-names value="true"/>
    </output>

    <processing>
        <geometry.min-radius.fix.railways value="false"/>
        <geometry.max-grade.fix value="false"/>
        <offset.disable-normalization value="true"/>
        <lefthand value="0"/>
    </processing>

    <junctions>
        <no-turnarounds value="true"/>
        <junctions.corner-detail value="5"/>
        <junctions.limit-turn-speed value="-1.00"/>
        <rectangular-lane-cut value="0"/>
    </junctions>

    <pedestrian>
        <walkingareas value="0"/>
    </pedestrian>

</configuration>
-->

<connections version="1.16" xmlns:xsi="http://www.w3.org/2001/XMLSchema-instance" xsi:noNamespaceSchemaLocation="http://sumo.dlr.de/xsd/connections_file.xsd">
    <connection from="-156640643#1" to="36826073#0" fromLane="0" toLane="0"/>
    <connection from="-156640643#1" to="-156775064#2" fromLane="0" toLane="0"/>
    <connection from="-156640643#1" to="27778148" fromLane="0" toLane="0"/>
    <connection from="-156640643#1" to="156640643#1" fromLane="0" toLane="0"/>

    <connection from="-156640643#2" to="36826079#0" fromLane="0" toLane="0"/>
    <connection from="-156640643#2" to="-156640643#1" fromLane="0" toLane="0"/>
    <connection from="-156640643#2" to="27778155" fromLane="0" toLane="0"/>
    <connection from="-156640643#2" to="156640643#2" fromLane="0" toLane="0"/>

    <connection from="-156640643#5" to="156640655#0" fromLane="0" toLane="0"/>
    <connection from="-156640643#5" to="-156640643#2" fromLane="0" toLane="0"/>
    <connection from="-156640643#5" to="-27778163" fromLane="0" toLane="0"/>
    <connection from="-156640643#5" to="-36826845" fromLane="0" toLane="0"/>
    <connection from="-156640643#5" to="156640643#5" fromLane="0" toLane="0"/>

    <connection from="-156640643#7" to="-36826095#1" fromLane="0" toLane="0"/>
    <connection from="-156640643#7" to="-156640643#5" fromLane="0" toLane="0"/>
    <connection from="-156640643#7" to="-36826843" fromLane="0" toLane="0"/>
    <connection from="-156640643#7" to="156640643#7" fromLane="0" toLane="0"/>

    <connection from="-156640643#8" to="-36826100#1" fromLane="0" toLane="0"/>
    <connection from="-156640643#8" to="-156640643#7" fromLane="0" toLane="0"/>
    <connection from="-156640643#8" to="36826100#2" fromLane="0" toLane="0"/>
    <connection from="-156640643#8" to="156640643#8" fromLane="0" toLane="0"/>

    <connection from="-156640646#0" to="245494958#1" fromLane="0" toLane="1"/>
    <connection from="-156640646#0" to="156640646#0" fromLane="0" toLane="0"/>

    <connection from="-156640650#0" to="156775056#13" fromLane="0" toLane="1"/>
    <connection from="-156640650#0" to="156640650#0" fromLane="0" toLane="0"/>

    <connection from="-156640650#1" to="-156640650#0" fromLane="0" toLane="0"/>
    <connection from="-156640650#1" to="156640650#1" fromLane="0" toLane="0"/>

    <connection from="-156640650#2" to="-36825696#1" fromLane="0" toLane="0"/>
    <connection from="-156640650#2" to="-156640650#1" fromLane="0" toLane="0"/>
    <connection from="-156640650#2" to="156640650#2" fromLane="0" toLane="0"/>

    <connection from="-156640650#3" to="156775052#0" fromLane="0" toLane="0"/>
    <connection from="-156640650#3" to="36825663#1" fromLane="0" toLane="0"/>
    <connection from="-156640650#3" to="-156640650#2" fromLane="0" toLane="0"/>
    <connection from="-156640650#3" to="156640650#3" fromLane="0" toLane="0"/>

    <connection from="-156640650#4" to="36825623#0" fromLane="0" toLane="0"/>
    <connection from="-156640650#4" to="-156640650#3" fromLane="0" toLane="0"/>
    <connection from="-156640650#4" to="156640650#4" fromLane="0" toLane="0"/>

    <connection from="-156640655#0" to="-156640643#2" fromLane="0" toLane="0"/>
    <connection from="-156640655#0" to="-27778163" fromLane="0" toLane="0"/>
    <connection from="-156640655#0" to="-36826845" fromLane="0" toLane="0"/>
    <connection from="-156640655#0" to="156640643#5" fromLane="0" toLane="0"/>
    <connection from="-156640655#0" to="156640655#0" fromLane="0" toLane="0"/>

    <connection from="-156640655#1" to="27765322#4" fromLane="0" toLane="0"/>
    <connection from="-156640655#1" to="-156640655#0" fromLane="0" toLane="0"/>
    <connection from="-156640655#1" to="-27765322#3" fromLane="0" toLane="0"/>
    <connection from="-156640655#1" to="156640655#1" fromLane="0" toLane="0"/>

    <connection from="-156640663#0" to="36846418#0" fromLane="0" toLane="0"/>
    <connection from="-156640663#0" to="-438182676#0" fromLane="0" toLane="0"/>
    <connection from="-156640663#0" to="-57844502#1" fromLane="0" toLane="0"/>
    <connection from="-156640663#0" to="156640663#0" fromLane="0" toLane="0"/>

    <connection from="-156640663#1" to="36846380#0" fromLane="0" toLane="0"/>
    <connection from="-156640663#1" to="-156640663#0" fromLane="0" toLane="0"/>
    <connection from="-156640663#1" to="156640663#1" fromLane="0" toLane="0"/>

    <connection from="-156775052#0" to="36825663#1" fromLane="0" toLane="0"/>
    <connection from="-156775052#0" to="-156640650#2" fromLane="0" toLane="0"/>
    <connection from="-156775052#0" to="156640650#3" fromLane="0" toLane="0"/>
    <connection from="-156775052#0" to="156775052#0" fromLane="0" toLane="0"/>

    <connection from="-156775052#1" to="36825623#1" fromLane="0" toLane="0"/>
    <connection from="-156775052#1" to="-156775052#0" fromLane="0" toLane="0"/>
    <connection from="-156775052#1" to="-36825623#0" fromLane="0" toLane="0"/>
    <connection from="-156775052#1" to="156775052#1" fromLane="0" toLane="0"/>

    <connection from="-156775052#2" to="36825575#1" fromLane="0" toLane="0"/>
    <connection from="-156775052#2" to="-156775052#1" fromLane="0" toLane="0"/>
    <connection from="-156775052#2" to="-36825575#0" fromLane="0" toLane="0"/>
    <connection from="-156775052#2" to="156775052#2" fromLane="0" toLane="0"/>

    <connection from="-156775052#3" to="36825527#1" fromLane="0" toLane="0"/>
    <connection from="-156775052#3" to="-156775052#2" fromLane="0" toLane="0"/>
    <connection from="-156775052#3" to="-36825527#0" fromLane="0" toLane="0"/>
    <connection from="-156775052#3" to="156775052#3" fromLane="0" toLane="0"/>

    <connection from="-156775052#4" to="-156775052#3" fromLane="0" toLane="0"/>
    <connection from="-156775052#4" to="156775052#4" fromLane="0" toLane="0"/>

    <connection from="-156775052#5" to="156775063#4" fromLane="0" toLane="0"/>
    <connection from="-156775052#5" to="-156775052#4" fromLane="0" toLane="0"/>
    <connection from="-156775052#5" to="-156775063#3" fromLane="0" toLane="0"/>
    <connection from="-156775052#5" to="156775052#5" fromLane="0" toLane="0"/>

    <connection from="-156775052#6" to="156775058#1" fromLane="0" toLane="0"/>
    <connection from="-156775052#6" to="-156775052#5" fromLane="0" toLane="0"/>
    <connection from="-156775052#6" to="-156775058#0" fromLane="0" toLane="0"/>
    <connection from="-156775052#6" to="156775052#6" fromLane="0" toLane="0"/>

    <connection from="-156775052#7" to="-27778180#1" fromLane="0" toLane="0"/>
    <connection from="-156775052#7" to="-156775052#6" fromLane="0" toLane="0"/>
    <connection from="-156775052#7" to="27778180#2" fromLane="0" toLane="0"/>
    <connection from="-156775052#7" to="156775052#7" fromLane="0" toLane="0"/>

    <connection from="-156775052#8" to="156775059#1" fromLane="0" toLane="0"/>
    <connection from="-156775052#8" to="-156775052#7" fromLane="0" toLane="0"/>
    <connection from="-156775052#8" to="-156775059#0" fromLane="0" toLane="0"/>
    <connection from="-156775052#8" to="156775052#8" fromLane="0" toLane="0"/>

    <connection from="-156775054" to="416561685#0" fromLane="0" toLane="0"/>
    <connection from="-156775054" to="-156640643#8" fromLane="0" toLane="0"/>
    <connection from="-156775054" to="156775054" fromLane="0" toLane="0"/>

    <connection from="-156775058#0" to="156775063#3" fromLane="0" toLane="0"/>
    <connection from="-156775058#0" to="-156775063#1" fromLane="0" toLane="0"/>
    <connection from="-156775058#0" to="156775058#0" fromLane="0" toLane="0"/>

    <connection from="-156775058#1" to="-156775052#5" fromLane="0" toLane="0"/>
    <connection from="-156775058#1" to="-156775058#0" fromLane="0" toLane="0"/>
    <connection from="-156775058#1" to="156775052#6" fromLane="0" toLane="0"/>
    <connection from="-156775058#1" to="156775058#1" fromLane="0" toLane="0"/>

    <connection from="-156775058#2" to="-156775058#1" fromLane="0" toLane="0"/>
    <connection from="-156775058#2" to="156775058#2" fromLane="0" toLane="0"/>

    <connection from="-156775059#0" to="-27778180#2" fromLane="0" toLane="0"/>
    <connection from="-156775059#0" to="156775063#1" fromLane="0" toLane="0"/>
    <connection from="-156775059#0" to="-156775063#0" fromLane="0" toLane="0"/>

    <connection from="-156775059#1" to="-156775052#7" fromLane="0" toLane="0"/>
    <connection from="-156775059#1" to="-156775059#0" fromLane="0" toLane="0"/>
    <connection from="-156775059#1" to="156775052#8" fromLane="0" toLane="0"/>
    <connection from="-156775059#1" to="156775059#1" fromLane="0" toLane="0"/>

    <connection from="-156775059#2" to="-156775059#1" fromLane="0" toLane="0"/>
    <connection from="-156775059#2" to="156775059#2" fromLane="0" toLane="0"/>

    <connection from="-156775063#0" to="156775052#8" fromLane="0" toLane="0"/>
    <connection from="-156775063#0" to="156775059#1" fromLane="0" toLane="0"/>
    <connection from="-156775063#0" to="-156775052#7" fromLane="0" toLane="0"/>
    <connection from="-156775063#0" to="-156775059#0" fromLane="0" toLane="0"/>

    <connection from="-156775063#1" to="-156775063#0" fromLane="0" toLane="0"/>
    <connection from="-156775063#1" to="-27778180#2" fromLane="0" toLane="0"/>
    <connection from="-156775063#1" to="156775063#1" fromLane="0" toLane="0"/>

    <connection from="-156775063#3" to="-156775063#1" fromLane="0" toLane="0"/>
    <connection from="-156775063#3" to="156775058#0" fromLane="0" toLane="0"/>
    <connection from="-156775063#3" to="156775063#3" fromLane="0" toLane="0"/>

    <connection from="-156775063#4" to="-156775052#4" fromLane="0" toLane="0"/>
    <connection from="-156775063#4" to="-156775063#3" fromLane="0" toLane="0"/>
    <connection from="-156775063#4" to="156775052#5" fromLane="0" toLane="0"/>
    <connection from="-156775063#4" to="156775063#4" fromLane="0" toLane="0"/>

    <connection from="-156775063#5" to="-156775063#4" fromLane="0" toLane="0"/>
    <connection from="-156775063#5" to="156775063#5" fromLane="0" toLane="0"/>

    <connection from="-156775064#0" to="-27765322#7" fromLane="0" toLane="0"/>
    <connection from="-156775064#0" to="-27765347#0" fromLane="0" toLane="0"/>
    <connection from="-156775064#0" to="27765347#1" fromLane="0" toLane="0"/>

    <connection from="-156775064#1" to="36826070#1" fromLane="0" toLane="0"/>
    <connection from="-156775064#1" to="-156775064#0" fromLane="0" toLane="0"/>
    <connection from="-156775064#1" to="-36826070#0" fromLane="0" toLane="0"/>
    <connection from="-156775064#1" to="156775064#1" fromLane="0" toLane="0"/>

    <connection from="-156775064#2" to="-156775064#1" fromLane="0" toLane="0"/>
    <connection from="-156775064#2" to="-36826832" fromLane="0" toLane="0"/>
    <connection from="-156775064#2" to="156775064#2" fromLane="0" toLane="0"/>

    <connection from="-164719876" to="-164719879" fromLane="0" toLane="0"/>
    <connection from="-164719876" to="164719876" fromLane="0" toLane="0"/>

    <connection from="-164719877" to="-164719876" fromLane="0" toLane="0"/>
    <connection from="-164719877" to="164719877" fromLane="0" toLane="0"/>

    <connection from="-164719879" to="164719879" fromLane="0" toLane="0"/>

    <connection from="-219816202#0" to="219816202#0" fromLane="0" toLane="0"/>

    <connection from="-219816202#1" to="-219816202#0" fromLane="0" toLane="0"/>
    <connection from="-219816202#1" to="219816233" fromLane="0" toLane="0"/>
    <connection from="-219816202#1" to="219816202#1" fromLane="0" toLane="0"/>

    <connection from="-219816205" to="-219816206" fromLane="0" toLane="0"/>
    <connection from="-219816205" to="6272844#2" fromLane="0" toLane="0"/>
    <connection from="-219816205" to="219816205" fromLane="0" toLane="0"/>

    <connection from="-219816206" to="-219816235#2" fromLane="0" toLane="0"/>
    <connection from="-219816206" to="-219816216#1" fromLane="0" toLane="0"/>
    <connection from="-219816206" to="219816206" fromLane="0" toLane="0"/>

    <connection from="-219816210#1" to="-219816236#2" fromLane="0" toLane="0"/>
    <connection from="-219816210#1" to="219816236#3" fromLane="0" toLane="0"/>
    <connection from="-219816210#1" to="219816210#0" fromLane="0" toLane="0"/>

    <connection from="-219816212#0" to="-24498480#2" fromLane="0" toLane="0"/>
    <connection from="-219816212#0" to="-219816244#2" fromLane="0" toLane="0"/>
    <connection from="-219816212#0" to="219816212#0" fromLane="0" toLane="0"/>

    <connection from="-219816212#2" to="219816231#0" fromLane="0" toLane="0"/>
    <connection from="-219816212#2" to="-219816212#0" fromLane="0" toLane="0"/>
    <connection from="-219816212#2" to="219816212#1" fromLane="0" toLane="0"/>

    <connection from="-219816212#3" to="219816236#1" fromLane="0" toLane="0"/>
    <connection from="-219816212#3" to="-219816212#2" fromLane="0" toLane="0"/>
    <connection from="-219816212#3" to="-219816236#0" fromLane="0" toLane="0"/>
    <connection from="-219816212#3" to="219816212#3" fromLane="0" toLane="0"/>

    <connection from="-219816216#0" to="-219816235#0" fromLane="0" toLane="0"/>
    <connection from="-219816216#0" to="219816235#1" fromLane="0" toLane="0"/>
    <connection from="-219816216#0" to="219816216#0" fromLane="0" toLane="0"/>

    <connection from="-219816216#1" to="219816235#0" fromLane="0" toLane="0"/>
    <connection from="-219816216#1" to="-219816216#0" fromLane="0" toLane="0"/>
    <connection from="-219816216#1" to="219816216#1" fromLane="0" toLane="0"/>

    <connection from="-219816231#0" to="-219816212#0" fromLane="0" toLane="0"/>
    <connection from="-219816231#0" to="219816212#1" fromLane="0" toLane="0"/>
    <connection from="-219816231#0" to="219816231#0" fromLane="0" toLane="0"/>

    <connection from="-219816231#2" to="-219816210#1" fromLane="0" toLane="0"/>
    <connection from="-219816231#2" to="-219816231#0" fromLane="0" toLane="0"/>
    <connection from="-219816231#2" to="219816231#1" fromLane="0" toLane="0"/>

    <connection from="-219816231#3" to="219816236#2" fromLane="0" toLane="0"/>
    <connection from="-219816231#3" to="-219816231#2" fromLane="0" toLane="0"/>
    <connection from="-219816231#3" to="-219816236#1" fromLane="0" toLane="0"/>
    <connection from="-219816231#3" to="219816231#3" fromLane="0" toLane="0"/>

    <connection from="-219816233" to="219816202#1" fromLane="0" toLane="0"/>
    <connection from="-219816233" to="-219816202#0" fromLane="0" toLane="0"/>
    <connection from="-219816233" to="219816233" fromLane="0" toLane="0"/>

    <connection from="-219816235#0" to="-219816216#0" fromLane="0" toLane="0"/>
    <connection from="-219816235#0" to="219816216#1" fromLane="0" toLane="0"/>
    <connection from="-219816235#0" to="219816235#0" fromLane="0" toLane="0"/>

    <connection from="-219816235#1" to="219816216#0" fromLane="0" toLane="0"/>
    <connection from="-219816235#1" to="-219816235#0" fromLane="0" toLane="0"/>
    <connection from="-219816235#1" to="219816235#1" fromLane="0" toLane="0"/>

    <connection from="-219816235#2" to="-219816235#1" fromLane="0" toLane="0"/>
    <connection from="-219816235#2" to="219816235#2" fromLane="0" toLane="0"/>

    <connection from="-219816236#0" to="219816244#1" fromLane="0" toLane="0"/>
    <connection from="-219816236#0" to="-219816236#9" fromLane="0" toLane="0"/>
    <connection from="-219816236#0" to="-219816244#0" fromLane="0" toLane="0"/>
    <connection from="-219816236#0" to="219816236#0" fromLane="0" toLane="0"/>

    <connection from="-219816236#1" to="-219816212#2" fromLane="0" toLane="0"/>
    <connection from="-219816236#1" to="-219816236#0" fromLane="0" toLane="0"/>
    <connection from="-219816236#1" to="219816212#3" fromLane="0" toLane="0"/>
    <connection from="-219816236#1" to="219816236#1" fromLane="0" toLane="0"/>

    <connection from="-219816236#2" to="-219816231#2" fromLane="0" toLane="0"/>
    <connection from="-219816236#2" to="-219816236#1" fromLane="0" toLane="0"/>
    <connection from="-219816236#2" to="219816231#3" fromLane="0" toLane="0"/>
    <connection from="-219816236#2" to="219816236#2" fromLane="0" toLane="0"/>

    <connection from="-219816236#3" to="219816210#0" fromLane="0" toLane="0"/>
    <connection from="-219816236#3" to="-219816236#2" fromLane="0" toLane="0"/>
    <connection from="-219816236#3" to="219816236#3" fromLane="0" toLane="0"/>

    <connection from="-219816236#4" to="-219816236#3" fromLane="0" toLane="0"/>
    <connection from="-219816236#4" to="-219816231#3" fromLane="0" toLane="0"/>
    <connection from="-219816236#4" to="219816236#4" fromLane="0" toLane="0"/>

    <connection from="-219816236#5" to="-219816236#4" fromLane="0" toLane="0"/>
    <connection from="-219816236#5" to="-219816212#3" fromLane="0" toLane="0"/>
    <connection from="-219816236#5" to="219816236#5" fromLane="0" toLane="0"/>

    <connection from="-219816236#6" to="-219816236#5" fromLane="0" toLane="0"/>
    <connection from="-219816236#6" to="219816244#0" fromLane="0" toLane="0"/>
    <connection from="-219816236#6" to="219816236#6" fromLane="0" toLane="0"/>

    <connection from="-219816236#7" to="-219816236#6" fromLane="0" toLane="0"/>
    <connection from="-219816236#7" to="-219816252#3" fromLane="0" toLane="0"/>
    <connection from="-219816236#7" to="219816236#7" fromLane="0" toLane="0"/>

    <connection from="-219816236#8" to="-219816239" fromLane="0" toLane="0"/>
    <connection from="-219816236#8" to="-219816236#7" fromLane="0" toLane="0"/>
    <connection from="-219816236#8" to="219816236#8" fromLane="0" toLane="0"/>

    <connection from="-219816236#9" to="-219816252#2" fromLane="0" toLane="0"/>
    <connection from="-219816236#9" to="-219816236#8" fromLane="0" toLane="0"/>
    <connection from="-219816236#9" to="219816252#3" fromLane="0" toLane="0"/>
    <connection from="-219816236#9" to="219816236#9" fromLane="0" toLane="0"/>

    <connection from="-219816239" to="219816252#2" fromLane="0" toLane="0"/>
    <connection from="-219816239" to="-219816252#1" fromLane="0" toLane="0"/>
    <connection from="-219816239" to="219816239" fromLane="0" toLane="0"/>

    <connection from="-219816242#0" to="-219816202#1" fromLane="0" toLane="0"/>
    <connection from="-219816242#0" to="-219816233" fromLane="0" toLane="0"/>
    <connection from="-219816242#0" to="219816242#0" fromLane="0" toLane="0"/>

    <connection from="-219816242#1" to="-219816242#0" fromLane="0" toLane="0"/>
    <connection from="-219816242#1" to="6272844#3" fromLane="0" toLane="0"/>
    <connection from="-219816242#1" to="219816242#1" fromLane="0" toLane="0"/>

    <connection from="-219816244#0" to="219816236#6" fromLane="0" toLane="0"/>
    <connection from="-219816244#0" to="-219816236#5" fromLane="0" toLane="0"/>
    <connection from="-219816244#0" to="219816244#0" fromLane="0" toLane="0"/>

    <connection from="-219816244#2" to="-219816236#9" fromLane="0" toLane="0"/>
    <connection from="-219816244#2" to="-219816244#0" fromLane="0" toLane="0"/>
    <connection from="-219816244#2" to="219816236#0" fromLane="0" toLane="0"/>
    <connection from="-219816244#2" to="219816244#1" fromLane="0" toLane="0"/>

    <connection from="-219816246" to="219816246" fromLane="0" toLane="0"/>

    <connection from="-219816252#1" to="24498480#2" fromLane="0" toLane="0"/>
    <connection from="-219816252#1" to="-24498480#1" fromLane="0" toLane="0"/>
    <connection from="-219816252#1" to="219816252#0" fromLane="0" toLane="0"/>

    <connection from="-219816252#2" to="-219816252#1" fromLane="0" toLane="0"/>
    <connection from="-219816252#2" to="219816239" fromLane="0" toLane="0"/>
    <connection from="-219816252#2" to="219816252#2" fromLane="0" toLane="0"/>

    <connection from="-219816252#3" to="219816236#9" fromLane="0" toLane="0"/>
    <connection from="-219816252#3" to="-219816252#2" fromLane="0" toLane="0"/>
    <connection from="-219816252#3" to="-219816236#8" fromLane="0" toLane="0"/>
    <connection from="-219816252#3" to="219816252#3" fromLane="0" toLane="0"/>

    <connection from="-219823329#0" to="219823329#0" fromLane="0" toLane="0"/>

    <connection from="-219823329#1" to="-219823329#0" fromLane="0" toLane="0"/>
    <connection from="-219823329#1" to="219823329#1" fromLane="0" toLane="0"/>

    <connection from="-225820566#2" to="225820566#0" fromLane="0" toLane="0"/>

    <connection from="-240042206#0" to="225982080#0" fromLane="0" toLane="0"/>
    <connection from="-240042206#0" to="-36839365" fromLane="0" toLane="0"/>
    <connection from="-240042206#0" to="27778041" fromLane="0" toLane="0"/>

    <connection from="-240042206#1" to="-36839373" fromLane="0" toLane="0"/>
    <connection from="-240042206#1" to="-240042206#0" fromLane="0" toLane="0"/>
    <connection from="-240042206#1" to="240042206#1" fromLane="0" toLane="0"/>

    <connection from="-240042210" to="-240042206#1" fromLane="0" toLane="0"/>
    <connection from="-240042210" to="240042210" fromLane="0" toLane="0"/>

    <connection from="-24498410#1" to="256366918" fromLane="0" toLane="0"/>
    <connection from="-24498410#1" to="24498410#0" fromLane="0" toLane="1"/>

    <connection from="-24498480#1" to="5067107#2" fromLane="0" toLane="0"/>
    <connection from="-24498480#1" to="6272844#4" fromLane="0" toLane="0"/>
    <connection from="-24498480#1" to="24498480#1" fromLane="0" toLane="0"/>

    <connection from="-24498480#2" to="-24498480#1" fromLane="0" toLane="0"/>
    <connection from="-24498480#2" to="219816252#0" fromLane="0" toLane="0"/>
    <connection from="-24498480#2" to="24498480#2" fromLane="0" toLane="0"/>

    <connection from="-245494956" to="245494958#0" fromLane="0" toLane="1"/>
    <connection from="-245494956" to="245494956" fromLane="0" toLane="0"/>

    <connection from="-256366919" to="24498410#0" fromLane="0" toLane="0"/>
    <connection from="-256366919" to="24498410#0" fromLane="0" toLane="1"/>
    <connection from="-256366919" to="256366918" fromLane="0" toLane="0"/>

    <connection from="-256366931#0" to="256366930" fromLane="0" toLane="0"/>
    <connection from="-256366931#0" to="256366930" fromLane="0" toLane="1"/>

    <connection from="-256366931#1" to="-256366931#0" fromLane="0" toLane="0"/>
    <connection from="-256366931#1" to="-299804627#2" fromLane="0" toLane="0"/>

    <connection from="-256366931#3" to="299804614#1" fromLane="0" toLane="0"/>
    <connection from="-256366931#3" to="-256366931#1" fromLane="0" toLane="0"/>
    <connection from="-256366931#3" to="-299804614#0" fromLane="0" toLane="0"/>

    <connection from="-26842749" to="8008671" fromLane="0" toLane="0"/>
    <connection from="-26842749" to="-436150918" fromLane="0" toLane="0"/>
    <connection from="-26842749" to="26842749" fromLane="0" toLane="0"/>

    <connection from="-27765297#0" to="240042204" fromLane="0" toLane="0"/>
    <connection from="-27765297#0" to="27765297#0" fromLane="0" toLane="0"/>

    <connection from="-27765297#1" to="219822418#1" fromLane="0" toLane="0"/>
    <connection from="-27765297#1" to="-27765297#0" fromLane="0" toLane="0"/>
    <connection from="-27765297#1" to="27765297#1" fromLane="0" toLane="0"/>

    <connection from="-27765322#0" to="27765322#0" fromLane="0" toLane="0"/>

    <connection from="-27765322#1" to="-416561685#0" fromLane="0" toLane="0"/>
    <connection from="-27765322#1" to="-27765322#0" fromLane="0" toLane="0"/>
    <connection from="-27765322#1" to="416561685#1" fromLane="0" toLane="0"/>
    <connection from="-27765322#1" to="27765322#1" fromLane="0" toLane="0"/>

    <connection from="-27765322#2" to="36826100#1" fromLane="0" toLane="0"/>
    <connection from="-27765322#2" to="-27765322#1" fromLane="0" toLane="0"/>
    <connection from="-27765322#2" to="-36826100#0" fromLane="0" toLane="0"/>
    <connection from="-27765322#2" to="27765322#2" fromLane="0" toLane="0"/>

    <connection from="-27765322#3" to="36826095#1" fromLane="0" toLane="0"/>
    <connection from="-27765322#3" to="-27765322#2" fromLane="0" toLane="0"/>
    <connection from="-27765322#3" to="-36826095#0" fromLane="0" toLane="0"/>
    <connection from="-27765322#3" to="27765322#3" fromLane="0" toLane="0"/>

    <connection from="-27765322#4" to="-156640655#0" fromLane="0" toLane="0"/>
    <connection from="-27765322#4" to="-27765322#3" fromLane="0" toLane="0"/>
    <connection from="-27765322#4" to="156640655#1" fromLane="0" toLane="0"/>
    <connection from="-27765322#4" to="27765322#4" fromLane="0" toLane="0"/>

    <connection from="-27765322#5" to="-36826079#0" fromLane="0" toLane="0"/>
    <connection from="-27765322#5" to="-27765322#4" fromLane="0" toLane="0"/>
    <connection from="-27765322#5" to="36826079#1" fromLane="0" toLane="0"/>
    <connection from="-27765322#5" to="27765322#5" fromLane="0" toLane="0"/>

    <connection from="-27765322#6" to="-36826073#0" fromLane="0" toLane="0"/>
    <connection from="-27765322#6" to="-27765322#5" fromLane="0" toLane="0"/>
    <connection from="-27765322#6" to="36826073#1" fromLane="0" toLane="0"/>
    <connection from="-27765322#6" to="27765322#6" fromLane="0" toLane="0"/>

    <connection from="-27765322#7" to="-36826070#1" fromLane="0" toLane="0"/>
    <connection from="-27765322#7" to="-27765322#6" fromLane="0" toLane="0"/>
    <connection from="-27765322#7" to="36826070#2" fromLane="0" toLane="0"/>
    <connection from="-27765322#7" to="27765322#7" fromLane="0" toLane="0"/>

    <connection from="-27765347#0" to="27765347#0" fromLane="0" toLane="0"/>

    <connection from="-27765607#0" to="225982080#2" fromLane="0" toLane="0"/>
    <connection from="-27765607#0" to="27765607#0" fromLane="0" toLane="0"/>

    <connection from="-27765607#1" to="36846588" fromLane="0" toLane="0"/>
    <connection from="-27765607#1" to="-27765607#0" fromLane="0" toLane="0"/>
    <connection from="-27765607#1" to="27765607#1" fromLane="0" toLane="0"/>

    <connection from="-27778148" to="156640643#1" fromLane="0" toLane="0"/>
    <connection from="-27778148" to="36826073#0" fromLane="0" toLane="0"/>
    <connection from="-27778148" to="-156775064#2" fromLane="0" toLane="0"/>
    <connection from="-27778148" to="27778148" fromLane="0" toLane="0"/>

    <connection from="-27778155" to="156640643#2" fromLane="0" toLane="0"/>
    <connection from="-27778155" to="36826079#0" fromLane="0" toLane="0"/>
    <connection from="-27778155" to="-156640643#1" fromLane="0" toLane="0"/>
    <connection from="-27778155" to="27778155" fromLane="0" toLane="0"/>

    <connection from="-27778163" to="245494958#5" fromLane="0" toLane="1"/>
    <connection from="-27778163" to="27778163" fromLane="0" toLane="0"/>

    <connection from="-27778180#0" to="156775056#4" fromLane="0" toLane="1"/>
    <connection from="-27778180#0" to="27778180#0" fromLane="0" toLane="0"/>

    <connection from="-27778180#1" to="-27778180#0" fromLane="0" toLane="0"/>
    <connection from="-27778180#1" to="27778180#1" fromLane="0" toLane="0"/>

    <connection from="-27778180#2" to="156775052#7" fromLane="0" toLane="0"/>
    <connection from="-27778180#2" to="-27778180#1" fromLane="0" toLane="0"/>
    <connection from="-27778180#2" to="-156775052#6" fromLane="0" toLane="0"/>
    <connection from="-27778180#2" to="27778180#2" fromLane="0" toLane="0"/>

    <connection from="-279915141#0" to="279915141#0" fromLane="0" toLane="0"/>

    <connection from="-279915141#1" to="-279915141#0" fromLane="0" toLane="0"/>
    <connection from="-279915141#1" to="279915151" fromLane="0" toLane="0"/>
    <connection from="-279915141#1" to="279915141#1" fromLane="0" toLane="0"/>

    <connection from="-279915142#0" to="279915142#0" fromLane="0" toLane="0"/>

    <connection from="-279915142#1" to="279915145#1" fromLane="0" toLane="0"/>
    <connection from="-279915142#1" to="-279915142#0" fromLane="0" toLane="0"/>
    <connection from="-279915142#1" to="-279915145#0" fromLane="0" toLane="0"/>
    <connection from="-279915142#1" to="279915142#1" fromLane="0" toLane="0"/>

    <connection from="-279915142#2" to="-279915142#1" fromLane="0" toLane="0"/>
    <connection from="-279915142#2" to="-279915149" fromLane="0" toLane="0"/>
    <connection from="-279915142#2" to="279915142#2" fromLane="0" toLane="0"/>

    <connection from="-279915143#0" to="279915143#0" fromLane="0" toLane="0"/>

    <connection from="-279915143#1" to="279915145#0" fromLane="0" toLane="0"/>
    <connection from="-279915143#1" to="-279915143#0" fromLane="0" toLane="0"/>
    <connection from="-279915143#1" to="279915143#1" fromLane="0" toLane="0"/>

    <connection from="-279915143#2" to="279915155" fromLane="0" toLane="0"/>
    <connection from="-279915143#2" to="-279915143#1" fromLane="0" toLane="0"/>
    <connection from="-279915143#2" to="279915143#2" fromLane="0" toLane="0"/>

    <connection from="-279915145#0" to="-279915143#0" fromLane="0" toLane="0"/>
    <connection from="-279915145#0" to="279915143#1" fromLane="0" toLane="0"/>
    <connection from="-279915145#0" to="279915145#0" fromLane="0" toLane="0"/>
