<?xml version="1.0" encoding="UTF-8"?>

<!-- generated on 2025-02-05 23:49:52 by Eclipse SUMO netconvert Version 1.19.0
<configuration xmlns:xsi="http://www.w3.org/2001/XMLSchema-instance" xsi:noNamespaceSchemaLocation="http://sumo.dlr.de/xsd/netconvertConfiguration.xsd">

    <input>
        <sumo-net-file value="a10kw.net.xml"/>
    </input>

    <output>
        <plain-output-prefix value="a10kw"/>
        <output.street-names value="true"/>
    </output>

    <processing>
        <geometry.min-radius.fix.railways value="false"/>
        <geometry.max-grade.fix value="false"/>
        <offset.disable-normalization value="true"/>
        <lefthand value="0"/>
    </processing>

    <junctions>
        <no-turnarounds value="true"/>
        <junctions.corner-detail value="5"/>
        <junctions.limit-turn-speed value="-1.00"/>
        <rectangular-lane-cut value="0"/>
    </junctions>

    <pedestrian>
        <walkingareas value="0"/>
    </pedestrian>

</configuration>
-->

<tlLogics version="1.16" xmlns:xsi="http://www.w3.org/2001/XMLSchema-instance" xsi:noNamespaceSchemaLocation="http://sumo.dlr.de/xsd/tllogic_file.xsd">
    <tlLogic id="GS_cluster_1643085231_21432440_32500280_32500282" type="static" programID="0" offset="0">
        <phase duration="4"  state="rrrrrrrryyyyryrrr"/>
        <phase duration="2"  state="rrrrrrrrrrrrrrrrr"/>
        <phase duration="10000" state="rrrrGGrrrrrrrGGGr"/>
        <phase duration="4"  state="rrrryyrrrrrrryyyr"/>
        <phase duration="2"  state="rrrrrrrrrrrrrrrrr"/>
        <phase duration="10000" state="rrrrrrGrrrrrrrrrG"/>
        <phase duration="4"  state="rrrrrryrrrrrrrrry"/>
        <phase duration="2"  state="rrrrrrrrrrrrrrrrr"/>
        <phase duration="10000" state="GGGGGrrrrrrrrrrrr"/>
        <phase duration="4"  state="yyyyyrrrrrrrrrrrr"/>
        <phase duration="2"  state="rrrrrrrrrrrrrrrrr"/>
        <phase duration="10000" state="rrrrrrrrGGGGrGrrr"/>
    </tlLogic>
    <tlLogic id="GS_cluster_21432412_32500298" type="static" programID="0" offset="0">
        <phase duration="4"  state="yrrrrryyy"/>
        <phase duration="2"  state="rrrrrrrrr"/>
        <phase duration="10000" state="GGGGGrrrr"/>
        <phase duration="4"  state="yyyyyrrrr"/>
        <phase duration="2"  state="rrrrrrrrr"/>
        <phase duration="10000" state="rrrrrGrrr"/>
        <phase duration="4"  state="rrrrryrrr"/>
        <phase duration="2"  state="rrrrrrrrr"/>
        <phase duration="10000" state="GrrrrrGGG"/>
    </tlLogic>

    <connection from="151495016#0" to="151495020" fromLane="0" toLane="0" tl="GS_cluster_1643085231_21432440_32500280_32500282" linkIndex="13"/>
    <connection from="151495016#0" to="308396219" fromLane="0" toLane="0" tl="GS_cluster_1643085231_21432440_32500280_32500282" linkIndex="14"/>
    <connection from="151495016#0" to="308396219" fromLane="1" toLane="1" tl="GS_cluster_1643085231_21432440_32500280_32500282" linkIndex="15"/>
    <connection from="151495016#0" to="151495015" fromLane="2" toLane="1" tl="GS_cluster_1643085231_21432440_32500280_32500282" linkIndex="16"/>
    <connection from="222448597#0" to="308396219" fromLane="0" toLane="0" tl="GS_cluster_1643085231_21432440_32500280_32500282" linkIndex="8"/>
    <connection from="222448597#0" to="151495015" fromLane="0" toLane="0" tl="GS_cluster_1643085231_21432440_32500280_32500282" linkIndex="9"/>
    <connection from="222448597#0" to="151495015" fromLane="1" toLane="1" tl="GS_cluster_1643085231_21432440_32500280_32500282" linkIndex="10"/>
    <connection from="222448597#0" to="151495017" fromLane="2" toLane="0" tl="GS_cluster_1643085231_21432440_32500280_32500282" linkIndex="11"/>
    <connection from="240042192#0" to="151495015" fromLane="0" toLane="0" tl="GS_cluster_1643085231_21432440_32500280_32500282" linkIndex="4"/>
    <connection from="240042192#0" to="151495017" fromLane="1" toLane="0" tl="GS_cluster_1643085231_21432440_32500280_32500282" linkIndex="5"/>
    <connection from="240042192#0" to="151495020" fromLane="2" toLane="0" tl="GS_cluster_1643085231_21432440_32500280_32500282" linkIndex="6"/>
    <connection from="240042194#0" to="151495017" fromLane="0" toLane="0" tl="GS_cluster_1643085231_21432440_32500280_32500282" linkIndex="0"/>
    <connection from="240042194#0" to="151495020" fromLane="1" toLane="0" tl="GS_cluster_1643085231_21432440_32500280_32500282" linkIndex="1"/>
    <connection from="240042194#0" to="308396219" fromLane="2" toLane="1" tl="GS_cluster_1643085231_21432440_32500280_32500282" linkIndex="2"/>
    <connection from="24498410#0" to="38234312" fromLane="0" toLane="0" tl="GS_cluster_21432412_32500298" linkIndex="6"/>
    <connection from="24498410#0" to="256366925" fromLane="1" toLane="1" tl="GS_cluster_21432412_32500298" linkIndex="8"/>
    <connection from="256366921#0" to="-24498410#1" fromLane="0" toLane="0" tl="GS_cluster_21432412_32500298" linkIndex="0"/>
    <connection from="256366921#0" to="38234312" fromLane="1" toLane="0" tl="GS_cluster_21432412_32500298" linkIndex="1"/>
    <connection from="256366921#0" to="38234312" fromLane="2" toLane="1" tl="GS_cluster_21432412_32500298" linkIndex="2"/>
    <connection from="256366928#0" to="256366925" fromLane="0" toLane="0" tl="GS_cluster_21432412_32500298" linkIndex="3"/>
    <connection from="256366928#0" to="256366925" fromLane="1" toLane="1" tl="GS_cluster_21432412_32500298" linkIndex="4"/>
    <connection from="256366928#0" to="-24498410#1" fromLane="2" toLane="0" tl="GS_cluster_21432412_32500298" linkIndex="5"/>
</tlLogics>
