<?xml version="1.0" encoding="UTF-8"?>

<!-- generated on 2025-02-05 23:49:52 by Eclipse SUMO netconvert Version 1.19.0
<configuration xmlns:xsi="http://www.w3.org/2001/XMLSchema-instance" xsi:noNamespaceSchemaLocation="http://sumo.dlr.de/xsd/netconvertConfiguration.xsd">

    <input>
        <sumo-net-file value="a10kw.net.xml"/>
    </input>

    <output>
        <plain-output-prefix value="a10kw"/>
        <output.street-names value="true"/>
    </output>

    <processing>
        <geometry.min-radius.fix.railways value="false"/>
        <geometry.max-grade.fix value="false"/>
        <offset.disable-normalization value="true"/>
        <lefthand value="0"/>
    </processing>

    <junctions>
        <no-turnarounds value="true"/>
        <junctions.corner-detail value="5"/>
        <junctions.limit-turn-speed value="-1.00"/>
        <rectangular-lane-cut value="0"/>
    </junctions>

    <pedestrian>
        <walkingareas value="0"/>
    </pedestrian>

</configuration>
-->

<edges version="1.16" xmlns:xsi="http://www.w3.org/2001/XMLSchema-instance" xsi:noNamespaceSchemaLocation="http://sumo.dlr.de/xsd/edges_file.xsd">
    <location netOffset="-402990.32,-5794389.48" convBoundary="330.80,0.00,2817.12,3173.89" origBoundary="13.576712,52.291597,13.630952,52.319872" projParameter="+proj=utm +zone=33 +ellps=WGS84 +datum=WGS84 +units=m +no_defs"/>

    <edge id="-156640643#1" from="305007013" to="cluster_305007007_428070841" priority="2" type="highway.service" numLanes="1" speed="5.56" shape="2145.90,2315.16 2131.47,2322.12" allow="pedestrian delivery bicycle">
        <lane index="0">
            <param key="origId" value="156640643"/>
        </lane>
    </edge>
    <edge id="-156640643#2" from="cluster_1688751029_305007030_428071320" to="305007013" priority="2" type="highway.service" numLanes="1" speed="5.56" shape="2163.42,2306.71 2145.90,2315.16" allow="pedestrian delivery bicycle">
        <lane index="0">
            <param key="origId" value="156640643"/>
        </lane>
    </edge>
    <edge id="-156640643#5" from="cluster_305007041_428071827" to="cluster_1688751029_305007030_428071320" priority="2" type="highway.service" numLanes="1" speed="5.56" shape="2190.80,2293.51 2179.70,2298.87" allow="pedestrian delivery bicycle">
        <lane index="0">
            <param key="origId" value="156640643"/>
        </lane>
    </edge>
    <edge id="-156640643#7" from="428071957" to="cluster_305007041_428071827" priority="2" type="highway.service" numLanes="1" speed="5.56" shape="2211.75,2283.42 2196.27,2290.88" allow="pedestrian delivery bicycle">
        <lane index="0">
            <param key="origId" value="156640643"/>
        </lane>
    </edge>
    <edge id="-156640643#8" from="1690138007" to="428071957" priority="2" type="highway.service" numLanes="1" speed="5.56" allow="pedestrian delivery bicycle">
        <lane index="0">
            <param key="origId" value="156640643"/>
        </lane>
    </edge>
    <edge id="-156640646#0" from="2478099346" to="428069304" priority="2" type="highway.service" numLanes="1" speed="5.56" allow="pedestrian delivery bicycle">
        <lane index="0">
            <param key="origId" value="156640646"/>
        </lane>
    </edge>
    <edge id="-156640650#0" from="1688751071" to="1688751025" priority="2" type="highway.service" numLanes="1" speed="5.56" shape="2045.09,2358.75 2039.53,2347.48 2029.87,2327.94 2010.93,2289.58 2007.42,2282.48 2005.94,2279.49" allow="pedestrian delivery bicycle">
        <lane index="0">
            <param key="origId" value="156640650"/>
        </lane>
    </edge>
    <edge id="-156640650#1" from="2478099353" to="1688751071" priority="2" type="highway.service" numLanes="1" speed="5.56" shape="2049.71,2406.93 2057.60,2384.66 2045.09,2358.75" allow="pedestrian delivery bicycle">
        <lane index="0">
            <param key="origId" value="156640650"/>
        </lane>
    </edge>
    <edge id="-156640650#2" from="cluster_428067379_428674283" to="2478099353" priority="2" type="highway.service" numLanes="1" speed="5.56" shape="2041.05,2432.88 2049.71,2406.93" allow="pedestrian delivery bicycle">
        <lane index="0">
            <param key="origId" value="156640650"/>
        </lane>
    </edge>
    <edge id="-156640650#3" from="428067256" to="cluster_428067379_428674283" priority="2" type="highway.service" numLanes="1" speed="5.56" shape="2031.84,2457.52 2041.05,2432.88" allow="pedestrian delivery bicycle">
        <lane index="0">
            <param key="origId" value="156640650"/>
        </lane>
    </edge>
    <edge id="-156640650#4" from="428066745" to="428067256" priority="2" type="highway.service" numLanes="1" speed="5.56" allow="pedestrian delivery bicycle">
        <lane index="0">
            <param key="origId" value="156640650"/>
        </lane>
    </edge>
    <edge id="-156640655#0" from="546782258" to="cluster_1688751029_305007030_428071320" priority="2" type="highway.service" numLanes="1" speed="5.56" shape="2256.13,2334.90 2168.75,2304.28" allow="pedestrian delivery bicycle">
        <lane index="0">
            <param key="origId" value="156640655"/>
        </lane>
    </edge>
    <edge id="-156640655#1" from="428071331" to="546782258" priority="2" type="highway.service" numLanes="1" speed="5.56" allow="pedestrian delivery bicycle">
        <lane index="0">
            <param key="origId" value="156640655"/>
        </lane>
    </edge>
    <edge id="-156640663#0" from="428323452" to="cluster_428324809_428325705" priority="2" type="highway.service" numLanes="1" speed="5.56" shape="1839.91,2659.45 1851.48,2674.85" allow="pedestrian delivery bicycle">
        <lane index="0">
            <param key="origId" value="156640663"/>
        </lane>
    </edge>
    <edge id="-156640663#1" from="428324086" to="428323452" priority="2" type="highway.service" numLanes="1" speed="5.56" shape="1889.44,2600.12 1833.70,2641.00 1832.11,2643.96 1833.02,2648.73 1839.91,2659.45" allow="pedestrian delivery bicycle">
        <lane index="0">
            <param key="origId" value="156640663"/>
        </lane>
    </edge>
    <edge id="-156775052#0" from="428674284" to="cluster_428067379_428674283" priority="2" type="highway.service" numLanes="1" speed="5.56" shape="2020.57,2427.15 2036.01,2419.74" allow="pedestrian delivery bicycle">
        <lane index="0">
            <param key="origId" value="156775052"/>
        </lane>
    </edge>
    <edge id="-156775052#1" from="428674285" to="428674284" priority="2" type="highway.service" numLanes="1" speed="5.56" allow="pedestrian delivery bicycle">
        <lane index="0">
            <param key="origId" value="156775052"/>
        </lane>
    </edge>
    <edge id="-156775052#2" from="428674286" to="428674285" priority="2" type="highway.service" numLanes="1" speed="5.56" allow="pedestrian delivery bicycle">
        <lane index="0">
            <param key="origId" value="156775052"/>
        </lane>
    </edge>
    <edge id="-156775052#3" from="428065237" to="428674286" priority="2" type="highway.service" numLanes="1" speed="5.56" allow="pedestrian delivery bicycle">
        <lane index="0">
            <param key="origId" value="156775052"/>
        </lane>
    </edge>
    <edge id="-156775052#4" from="305007193" to="428065237" priority="2" type="highway.service" numLanes="1" speed="5.56" allow="pedestrian delivery bicycle">
        <lane index="0">
            <param key="origId" value="156775052"/>
        </lane>
    </edge>
    <edge id="-156775052#5" from="305007134" to="305007193" priority="2" type="highway.service" numLanes="1" speed="5.56" allow="pedestrian delivery bicycle">
        <lane index="0">
            <param key="origId" value="156775052"/>
        </lane>
    </edge>
    <edge id="-156775052#6" from="305007106" to="305007134" priority="2" type="highway.service" numLanes="1" speed="5.56" allow="pedestrian delivery bicycle">
        <lane index="0">
            <param key="origId" value="156775052"/>
        </lane>
    </edge>
    <edge id="-156775052#7" from="305007153" to="305007106" priority="2" type="highway.service" numLanes="1" speed="5.56" allow="pedestrian delivery bicycle">
        <lane index="0">
            <param key="origId" value="156775052"/>
        </lane>
    </edge>
    <edge id="-156775052#8" from="cluster_1643085172_2289508711_2289509017" to="305007153" priority="2" type="highway.service" numLanes="1" speed="5.56" shape="1909.63,2480.36 1911.82,2479.31 1920.10,2475.34" allow="pedestrian delivery bicycle">
        <lane index="0">
            <param key="origId" value="156775052"/>
        </lane>
    </edge>
    <edge id="-156775054" from="1690138002" to="1690138007" priority="2" type="highway.service" numLanes="1" speed="5.56" allow="pedestrian delivery bicycle">
        <lane index="0">
            <param key="origId" value="156775054"/>
        </lane>
    </edge>
    <edge id="-156775058#0" from="305007134" to="cluster_2478099361_2526824587" priority="2" type="highway.service" numLanes="1" speed="5.56" shape="1951.26,2460.40 1985.04,2531.33" allow="pedestrian delivery bicycle">
        <lane index="0">
            <param key="origId" value="156775058"/>
        </lane>
    </edge>
    <edge id="-156775058#1" from="428674291" to="305007134" priority="2" type="highway.service" numLanes="1" speed="5.56" shape="1926.72,2415.32 1946.21,2457.50 1951.26,2460.40" allow="pedestrian delivery bicycle">
        <lane index="0">
            <param key="origId" value="156775058"/>
        </lane>
    </edge>
    <edge id="-156775058#2" from="428069652" to="428674291" priority="2" type="highway.service" numLanes="1" speed="5.56" allow="pedestrian delivery bicycle">
        <lane index="0">
            <param key="origId" value="156775058"/>
        </lane>
    </edge>
    <edge id="-156775059#0" from="305007153" to="2526824586" priority="2" type="highway.service" numLanes="1" speed="5.56" shape="1920.10,2475.34 1947.09,2534.91 1949.55,2536.25 1968.77,2537.47" allow="pedestrian delivery bicycle">
        <lane index="0">
            <param key="origId" value="156775059 156775063"/>
        </lane>
    </edge>
    <edge id="-156775059#1" from="428674292" to="305007153" priority="2" type="highway.service" numLanes="1" speed="5.56" shape="1895.01,2430.50 1914.68,2472.78 1920.10,2475.34" allow="pedestrian delivery bicycle">
        <lane index="0">
            <param key="origId" value="156775059"/>
        </lane>
    </edge>
    <edge id="-156775059#2" from="428069528" to="428674292" priority="2" type="highway.service" numLanes="1" speed="5.56" allow="pedestrian delivery bicycle">
        <lane index="0">
            <param key="origId" value="156775059"/>
        </lane>
    </edge>
    <edge id="-156775063#0" from="2526824586" to="305007153" priority="2" type="highway.service" numLanes="1" speed="5.56" shape="1968.77,2537.47 1949.55,2536.25 1947.09,2534.91 1920.10,2475.34" allow="pedestrian delivery bicycle">
        <lane index="0">
            <param key="origId" value="156775063 156775059"/>
        </lane>
    </edge>
    <edge id="-156775063#1" from="cluster_2478099361_2526824587" to="2526824586" priority="2" type="highway.service" numLanes="1" speed="5.56" shape="1985.04,2531.33 1970.80,2537.60 1968.77,2537.47" allow="pedestrian delivery bicycle">
        <lane index="0">
            <param key="origId" value="156775063"/>
        </lane>
    </edge>
    <edge id="-156775063#3" from="305007193" to="cluster_2478099361_2526824587" priority="2" type="highway.service" numLanes="1" speed="5.56" shape="1967.17,2452.77 2001.01,2524.29 1992.93,2527.85" allow="pedestrian delivery bicycle">
        <lane index="0">
            <param key="origId" value="156775063"/>
        </lane>
    </edge>
    <edge id="-156775063#4" from="428674289" to="305007193" priority="2" type="highway.service" numLanes="1" speed="5.56" shape="1942.35,2407.83 1961.48,2450.10 1967.17,2452.77" allow="pedestrian delivery bicycle">
        <lane index="0">
            <param key="origId" value="156775063"/>
        </lane>
    </edge>
    <edge id="-156775063#5" from="428069661" to="428674289" priority="2" type="highway.service" numLanes="1" speed="5.56" allow="pedestrian delivery bicycle">
        <lane index="0">
            <param key="origId" value="156775063"/>
        </lane>
    </edge>
    <edge id="-156775064#0" from="304884030" to="1690138016" priority="2" type="highway.service" numLanes="1" speed="5.56" shape="2110.67,2340.00 2108.12,2350.18 2109.94,2358.91 2113.22,2365.96 2230.89,2406.42" allow="pedestrian delivery bicycle">
        <lane index="0">
            <param key="origId" value="156775064 27765347"/>
        </lane>
    </edge>
    <edge id="-156775064#1" from="304884263" to="304884030" priority="2" type="highway.service" numLanes="1" speed="5.56" allow="pedestrian delivery bicycle">
        <lane index="0">
            <param key="origId" value="156775064"/>
        </lane>
    </edge>
    <edge id="-156775064#2" from="cluster_305007007_428070841" to="304884263" priority="2" type="highway.service" numLanes="1" speed="5.56" shape="2123.76,2325.83 2117.16,2329.95" allow="pedestrian delivery bicycle">
        <lane index="0">
            <param key="origId" value="156775064"/>
        </lane>
    </edge>
    <edge id="-164719876" from="1763285717" to="34160724" priority="7" type="highway.secondary" numLanes="1" speed="19.44" disallow="tram rail_urban rail rail_electric rail_fast ship">
        <lane index="0">
            <param key="origId" value="164719876"/>
        </lane>
    </edge>
    <edge id="-164719877" from="21533060" to="1763285717" priority="7" type="highway.secondary" numLanes="1" speed="19.44" shape="1544.26,2663.42 1484.14,2688.45 1412.33,2718.33" disallow="tram rail_urban rail rail_electric rail_fast ship">
        <lane index="0">
            <param key="origId" value="164719877"/>
        </lane>
    </edge>
    <edge id="-164719879" from="34160724" to="1763285718" priority="7" type="highway.secondary" numLanes="1" speed="22.22" shape="1308.09,2761.34 1190.28,2841.72 1009.90,3032.30 977.69,3068.96" disallow="tram rail_urban rail rail_electric rail_fast ship">
        <lane index="0">
            <param key="origId" value="164719879"/>
        </lane>
    </edge>
    <edge id="-219816202#0" from="2289456217" to="2289456408" priority="2" type="highway.service" numLanes="1" speed="5.56" allow="pedestrian delivery bicycle">
        <lane index="0">
            <param key="origId" value="219816202"/>
        </lane>
    </edge>
    <edge id="-219816202#1" from="2289456352" to="2289456217" priority="2" type="highway.service" numLanes="1" speed="5.56" shape="1744.26,2855.63 1760.24,2886.83 1744.85,2895.76 1727.23,2864.61" allow="pedestrian delivery bicycle">
        <lane index="0">
            <param key="origId" value="219816202"/>
        </lane>
    </edge>
    <edge id="-219816205" from="2289456419" to="2289456323" priority="2" type="highway.service" numLanes="1" speed="5.56" allow="pedestrian delivery bicycle">
        <lane index="0">
            <param key="origId" value="219816205"/>
        </lane>
    </edge>
    <edge id="-219816206" from="2289456323" to="2289456289" priority="2" type="highway.service" numLanes="1" speed="5.56" allow="pedestrian delivery bicycle">
        <lane index="0">
            <param key="origId" value="219816206"/>
        </lane>
    </edge>
    <edge id="-219816210#1" from="2289456458" to="2289456224" priority="2" type="highway.service" numLanes="1" speed="5.56" shape="1746.76,2782.79 1759.70,2774.34 1744.25,2749.84 1715.46,2704.08" allow="pedestrian delivery bicycle">
        <lane index="0">
            <param key="origId" value="219816210"/>
        </lane>
    </edge>
    <edge id="-219816212#0" from="266391230" to="266391236" priority="2" type="highway.service" numLanes="1" speed="5.56" allow="pedestrian delivery bicycle">
        <lane index="0">
            <param key="origId" value="219816212"/>
        </lane>
    </edge>
    <edge id="-219816212#2" from="266391233" to="266391230" priority="2" type="highway.service" numLanes="1" speed="5.56" shape="1689.54,2720.27 1717.84,2767.22 1732.98,2791.81" allow="pedestrian delivery bicycle">
        <lane index="0">
            <param key="origId" value="219816212"/>
        </lane>
    </edge>
    <edge id="-219816212#3" from="2289456402" to="266391233" priority="2" type="highway.service" numLanes="1" speed="5.56" allow="pedestrian delivery bicycle">
        <lane index="0">
            <param key="origId" value="219816212"/>
        </lane>
    </edge>
    <edge id="-219816216#0" from="2289456308" to="2289456248" priority="2" type="highway.service" numLanes="1" speed="5.56" shape="1761.59,2860.32 1773.32,2883.17 1813.31,2861.24 1813.51,2854.77 1798.66,2841.09" allow="pedestrian delivery bicycle">
        <lane index="0">
            <param key="origId" value="219816216"/>
        </lane>
    </edge>
    <edge id="-219816216#1" from="2289456289" to="2289456308" priority="2" type="highway.service" numLanes="1" speed="5.56" allow="pedestrian delivery bicycle">
        <lane index="0">
            <param key="origId" value="219816216"/>
        </lane>
    </edge>
    <edge id="-219816231#0" from="2289456458" to="266391230" priority="2" type="highway.service" numLanes="1" speed="5.56" allow="pedestrian delivery bicycle">
        <lane index="0">
            <param key="origId" value="219816231"/>
        </lane>
    </edge>
    <edge id="-219816231#2" from="2289456215" to="2289456458" priority="2" type="highway.service" numLanes="1" speed="5.56" shape="1701.42,2712.85 1731.21,2758.33 1746.76,2782.79" allow="pedestrian delivery bicycle">
        <lane index="0">
            <param key="origId" value="219816231"/>
        </lane>
    </edge>
    <edge id="-219816231#3" from="2289456337" to="2289456215" priority="2" type="highway.service" numLanes="1" speed="5.56" shape="1667.76,2657.60 1685.01,2685.30 1701.42,2712.85" allow="pedestrian delivery bicycle">
        <lane index="0">
            <param key="origId" value="219816231"/>
        </lane>
    </edge>
    <edge id="-219816233" from="2289456352" to="2289456217" priority="2" type="highway.service" numLanes="1" speed="5.56" allow="pedestrian delivery bicycle">
        <lane index="0">
            <param key="origId" value="219816233"/>
        </lane>
    </edge>
    <edge id="-219816235#0" from="2289456248" to="2289456308" priority="2" type="highway.service" numLanes="1" speed="5.56" allow="pedestrian delivery bicycle">
        <lane index="0">
            <param key="origId" value="219816235"/>
        </lane>
    </edge>
    <edge id="-219816235#1" from="2289456295" to="2289456248" priority="2" type="highway.service" numLanes="1" speed="5.56" allow="pedestrian delivery bicycle">
        <lane index="0">
            <param key="origId" value="219816235"/>
        </lane>
    </edge>
    <edge id="-219816235#2" from="2289456289" to="2289456295" priority="2" type="highway.service" numLanes="1" speed="5.56" allow="pedestrian delivery bicycle">
        <lane index="0">
            <param key="origId" value="219816235"/>
        </lane>
    </edge>
    <edge id="-219816236#0" from="266391233" to="266391235" priority="2" type="highway.service" numLanes="1" speed="5.56" allow="pedestrian delivery bicycle">
        <lane index="0">
            <param key="origId" value="219816236"/>
        </lane>
    </edge>
    <edge id="-219816236#1" from="2289456215" to="266391233" priority="2" type="highway.service" numLanes="1" speed="5.56" allow="pedestrian delivery bicycle">
        <lane index="0">
            <param key="origId" value="219816236"/>
        </lane>
    </edge>
    <edge id="-219816236#2" from="2289456224" to="2289456215" priority="2" type="highway.service" numLanes="1" speed="5.56" allow="pedestrian delivery bicycle">
        <lane index="0">
            <param key="origId" value="219816236"/>
        </lane>
    </edge>
    <edge id="-219816236#3" from="2289456337" to="2289456224" priority="2" type="highway.service" numLanes="1" speed="5.56" shape="1667.76,2657.60 1681.26,2649.23 1715.46,2704.08" allow="pedestrian delivery bicycle">
        <lane index="0">
            <param key="origId" value="219816236"/>
        </lane>
    </edge>
    <edge id="-219816236#4" from="2289456402" to="2289456337" priority="2" type="highway.service" numLanes="1" speed="5.56" allow="pedestrian delivery bicycle">
        <lane index="0">
            <param key="origId" value="219816236"/>
        </lane>
    </edge>
    <edge id="-219816236#5" from="2289456445" to="2289456402" priority="2" type="highway.service" numLanes="1" speed="5.56" allow="pedestrian delivery bicycle">
        <lane index="0">
            <param key="origId" value="219816236"/>
        </lane>
    </edge>
    <edge id="-219816236#6" from="2289456285" to="2289456445" priority="2" type="highway.service" numLanes="1" speed="5.56" allow="pedestrian delivery bicycle">
        <lane index="0">
            <param key="origId" value="219816236"/>
        </lane>
    </edge>
    <edge id="-219816236#7" from="2289456389" to="2289456285" priority="2" type="highway.service" numLanes="1" speed="5.56" shape="1641.48,2750.27 1606.99,2695.91 1622.65,2686.02" allow="pedestrian delivery bicycle">
        <lane index="0">
            <param key="origId" value="219816236"/>
        </lane>
    </edge>
    <edge id="-219816236#8" from="2289456358" to="2289456389" priority="2" type="highway.service" numLanes="1" speed="5.56" allow="pedestrian delivery bicycle">
        <lane index="0">
            <param key="origId" value="219816236"/>
        </lane>
    </edge>
    <edge id="-219816236#9" from="266391235" to="2289456358" priority="2" type="highway.service" numLanes="1" speed="5.56" allow="pedestrian delivery bicycle">
        <lane index="0">
            <param key="origId" value="219816236"/>
        </lane>
    </edge>
    <edge id="-219816239" from="2289456389" to="2289456441" priority="2" type="highway.service" numLanes="1" speed="5.56" shape="1641.48,2750.27 1662.19,2782.25 1676.71,2773.14" allow="pedestrian delivery bicycle">
        <lane index="0">
            <param key="origId" value="219816239"/>
        </lane>
    </edge>
    <edge id="-219816242#0" from="2289456462" to="2289456352" priority="2" type="highway.service" numLanes="1" speed="5.56" allow="pedestrian delivery bicycle">
        <lane index="0">
            <param key="origId" value="219816242"/>
        </lane>
    </edge>
    <edge id="-219816242#1" from="2289456342" to="2289456462" priority="2" type="highway.service" numLanes="1" speed="5.56" allow="pedestrian delivery bicycle">
        <lane index="0">
            <param key="origId" value="219816242"/>
        </lane>
    </edge>
    <edge id="-219816244#0" from="266391235" to="2289456445" priority="2" type="highway.service" numLanes="1" speed="5.56" allow="pedestrian delivery bicycle">
        <lane index="0">
            <param key="origId" value="219816244"/>
        </lane>
    </edge>
    <edge id="-219816244#2" from="266391236" to="266391235" priority="2" type="highway.service" numLanes="1" speed="5.56" shape="1715.99,2802.91 1700.67,2777.69 1672.15,2731.12" allow="pedestrian delivery bicycle">
        <lane index="0">
            <param key="origId" value="219816244"/>
        </lane>
    </edge>
    <edge id="-219816246" from="2289456329" to="2289456305" priority="2" type="highway.service" numLanes="1" speed="5.56" shape="1617.52,2903.95 1597.25,2892.77 1560.11,2875.07 1519.19,2753.10" allow="pedestrian delivery bicycle">
        <lane index="0">
            <param key="origId" value="219816246"/>
        </lane>
    </edge>
    <edge id="-219816252#1" from="2289456441" to="2289456192" priority="2" type="highway.service" numLanes="1" speed="5.56" shape="1676.71,2773.14 1685.27,2786.94 1701.19,2812.59" allow="pedestrian delivery bicycle">
        <lane index="0">
            <param key="origId" value="219816252"/>
        </lane>
    </edge>
    <edge id="-219816252#2" from="2289456358" to="2289456441" priority="2" type="highway.service" numLanes="1" speed="5.56" allow="pedestrian delivery bicycle">
        <lane index="0">
            <param key="origId" value="219816252"/>
        </lane>
    </edge>
    <edge id="-219816252#3" from="2289456285" to="2289456358" priority="2" type="highway.service" numLanes="1" speed="5.56" shape="1622.65,2686.02 1638.80,2712.04 1656.64,2740.81" allow="pedestrian delivery bicycle">
        <lane index="0">
            <param key="origId" value="219816252"/>
        </lane>
    </edge>
    <edge id="-219823329#0" from="2289518870" to="2289518845" priority="2" type="highway.service" numLanes="1" speed="5.56" allow="pedestrian delivery bicycle">
        <lane index="0">
            <param key="origId" value="219823329"/>
        </lane>
    </edge>
    <edge id="-219823329#1" from="2289518829" to="2289518870" priority="2" type="highway.service" numLanes="1" speed="5.56" allow="pedestrian delivery bicycle">
        <lane index="0">
            <param key="origId" value="219823329"/>
        </lane>
    </edge>
    <edge id="-225820566#2" from="2386430379" to="1931111027" priority="1" type="highway.cycleway" numLanes="1" speed="8.33" shape="1735.28,1973.74 1744.83,1973.36 1744.57,1959.61 1742.87,1764.18 1742.73,1662.89 1743.15,1536.12 1744.78,1421.22 1746.09,1371.23 1745.55,1307.56 1743.63,1304.31 1738.36,1299.08 1736.54,1295.88 1726.47,1251.22 1722.24,1228.52 1720.95,1218.39 1720.68,1216.35 1720.15,1207.87 1719.83,1199.12 1714.99,1103.90 1709.88,1062.99 1705.86,981.04 1703.91,934.97 1701.70,912.74 1697.89,890.91 1691.13,863.53 1684.03,837.97 1676.61,809.83 1671.69,784.15 1668.75,752.45 1668.41,736.30 1668.79,720.15 1671.06,695.40 1673.74,673.38 1680.36,633.26 1686.67,592.16 1697.14,552.35 1716.87,459.30 1728.32,413.35 1728.49,406.82 1727.14,403.12 1729.09,388.76 1738.01,331.88 1738.83,326.64 1740.02,310.08 1741.80,283.06 1742.90,270.60 1753.29,192.21 1754.39,183.88 1756.24,166.14 1755.83,152.63 1756.21,149.30 1757.38,138.90 1766.21,73.17 1768.99,52.40 1775.85,0.00" width="1.00" allow="bicycle">
        <lane index="0">
            <param key="origId" value="225820566"/>
        </lane>
    </edge>
    <edge id="-240042206#0" from="428253431" to="266393401" priority="2" type="highway.service" numLanes="1" speed="13.89" shape="2190.91,2752.02 2248.08,2724.73 2253.80,2721.96 2231.58,2676.15" allow="pedestrian delivery bicycle">
        <lane index="0">
            <param key="origId" value="240042206 27778041"/>
        </lane>
    </edge>
    <edge id="-240042206#1" from="266393446" to="428253431" priority="2" type="highway.service" numLanes="1" speed="13.89" shape="2167.66,2768.98 2176.85,2759.69 2190.91,2752.02" allow="pedestrian delivery bicycle">
        <lane index="0">
            <param key="origId" value="240042206"/>
        </lane>
    </edge>
    <edge id="-240042210" from="32500320" to="266393446" priority="5" type="highway.unclassified" numLanes="1" speed="13.89" shape="2091.45,2938.89 2094.52,2932.27 2095.14,2930.88 2099.98,2919.97 2155.91,2796.87 2167.66,2768.98" disallow="tram rail_urban rail rail_electric rail_fast ship">
        <lane index="0">
            <param key="origId" value="240042210"/>
        </lane>
    </edge>
    <edge id="-24498410#1" from="cluster_21432412_32500298" to="2620251425" priority="12" type="highway.motorway_link" numLanes="1" speed="19.44" shape="1730.07,2190.91 1716.16,2193.83 1703.79,2197.25 1692.19,2200.81 1677.96,2207.44 1663.01,2215.74 1655.18,2222.09 1644.32,2229.81" allow="private emergency authority army vip passenger hov taxi bus coach delivery truck trailer motorcycle evehicle custom1 custom2">
        <lane index="0">
            <param key="origId" value="24498410"/>
        </lane>
    </edge>
    <edge id="-24498480#1" from="2289456192" to="cluster_2289518871_266391218_266391220" priority="2" type="highway.service" numLanes="1" speed="5.56" shape="1701.19,2812.59 1683.31,2824.13 1662.42,2839.34 1661.60,2847.15 1667.09,2856.78" allow="pedestrian delivery bicycle">
        <lane index="0">
            <param key="origId" value="24498480"/>
        </lane>
    </edge>
    <edge id="-24498480#2" from="266391236" to="2289456192" priority="2" type="highway.service" numLanes="1" speed="5.56" allow="pedestrian delivery bicycle">
        <lane index="0">
            <param key="origId" value="24498480"/>
        </lane>
    </edge>
    <edge id="-245494956" from="4173150422" to="1239101644" priority="2" type="highway.service" numLanes="1" speed="5.56" allow="pedestrian delivery bicycle">
        <lane index="0">
            <param key="origId" value="245494956"/>
        </lane>
    </edge>
    <edge id="-256366919" from="21432419" to="2620251425" priority="12" type="highway.motorway_link" numLanes="1" speed="19.44" shape="1542.55,2335.72 1546.82,2321.59 1551.97,2310.52 1559.61,2300.43 1569.05,2290.54 1579.26,2281.75 1620.16,2250.05 1644.32,2229.81" allow="private emergency authority army vip passenger hov taxi bus coach delivery truck trailer motorcycle evehicle custom1 custom2">
        <lane index="0">
            <param key="origId" value="256366919 256366918"/>
        </lane>
    </edge>
    <edge id="-256366931#0" from="3038886133" to="2620251421" name="Halskestraße" priority="5" type="highway.unclassified" numLanes="1" speed="13.89" disallow="tram rail_urban rail rail_electric rail_fast ship">
        <lane index="0">
            <param key="origId" value="256366931"/>
        </lane>
    </edge>
    <edge id="-256366931#1" from="3038886134" to="3038886133" name="Halskestraße" priority="5" type="highway.unclassified" numLanes="1" speed="13.89" shape="1579.35,1956.11 1617.05,1953.79 1633.51,1953.55" disallow="tram rail_urban rail rail_electric rail_fast ship">
        <lane index="0">
            <param key="origId" value="256366931"/>
        </lane>
    </edge>