<?xml version="1.0" encoding="UTF-8"?>

<!-- generated on 2025-02-26 11:16:10 by Eclipse SUMO netconvert Version 1.19.0
<configuration xmlns:xsi="http://www.w3.org/2001/XMLSchema-instance" xsi:noNamespaceSchemaLocation="http://sumo.dlr.de/xsd/netconvertConfiguration.xsd">

    <input>
        <sumo-net-file value="network_without_second_lane.net.xml"/>
    </input>

    <output>
        <plain-output-prefix value="two_route_yield"/>
    </output>

    <processing>
        <geometry.min-radius.fix.railways value="false"/>
        <geometry.max-grade.fix value="false"/>
        <offset.disable-normalization value="true"/>
        <lefthand value="0"/>
    </processing>

    <junctions>
        <no-turnarounds value="true"/>
        <junctions.corner-detail value="5"/>
        <junctions.limit-turn-speed value="5.50"/>
        <rectangular-lane-cut value="0"/>
    </junctions>

    <pedestrian>
        <walkingareas value="0"/>
    </pedestrian>

</configuration>
-->

<nodes version="1.16" xmlns:xsi="http://www.w3.org/2001/XMLSchema-instance" xsi:noNamespaceSchemaLocation="http://sumo.dlr.de/xsd/nodes_file.xsd">
    <location netOffset="0.00,0.00" convBoundary="0.00,87.50,300.00,100.00" origBoundary="-10000000000.00,-10000000000.00,10000000000.00,10000000000.00" projParameter="!"/>

    <node id="J0" x="0.00" y="100.00" type="dead_end"/>
    <node id="J1" x="100.00" y="100.00" type="priority"/>
    <node id="J2" x="200.00" y="100.00" type="priority"/>
    <node id="J3" x="300.00" y="100.00" type="dead_end"/>
    <node id="J4" x="100.00" y="87.50" type="priority"/>
    <node id="J5" x="200.00" y="87.50" type="priority"/>
    <node id="J6" x="173.97" y="100.00" type="priority"/>
</nodes>
