<?xml version="1.0" encoding="UTF-8"?>

<!-- generated on 2024-07-25 15:08:46 by Eclipse SUMO netedit Version 1.19.0
-->

<routes xmlns:xsi="http://www.w3.org/2001/XMLSchema-instance" xsi:noNamespaceSchemaLocation="http://sumo.dlr.de/xsd/routes_file.xsd">
<route id="0_0_0" edges=" E0 E1 E2" />
<route id="0_0_1" edges=" E0 E3 E4 E5 E2" />
</routes>
