<?xml version="1.0" encoding="UTF-8"?>

<!-- generated on 2024-11-20 12:45:21 by Eclipse SUMO netedit Version 1.15.0
-->

<routes xmlns:xsi="http://www.w3.org/2001/XMLSchema-instance" xsi:noNamespaceSchemaLocation="http://sumo.dlr.de/xsd/routes_file.xsd">
    <!-- Vehicles, persons and containers (sorted by depart) -->
    <route edges="E0 E1 E2"/>
</routes>
