<?xml version="1.0" encoding="UTF-8"?>

<!-- generated on 2025-04-07 23:33:54 by Eclipse SUMO netconvert Version 1.19.0
<configuration xmlns:xsi="http://www.w3.org/2001/XMLSchema-instance" xsi:noNamespaceSchemaLocation="http://sumo.dlr.de/xsd/netconvertConfiguration.xsd">

    <input>
        <sumo-net-file value="saint_arnoult/saint_arnoult.net.xml"/>
    </input>

    <output>
        <output-file value="saint_arnoult/saint_arnoult.rou.xml"/>
    </output>

    <processing>
        <geometry.min-radius.fix.railways value="false"/>
        <geometry.max-grade.fix value="false"/>
        <offset.disable-normalization value="true"/>
        <lefthand value="0"/>
    </processing>

    <tls_building>
        <tls.ignore-internal-junction-jam value="1"/>
    </tls_building>

    <junctions>
        <no-turnarounds value="true"/>
        <junctions.corner-detail value="5"/>
        <junctions.limit-turn-speed value="5.50"/>
        <rectangular-lane-cut value="0"/>
    </junctions>

    <pedestrian>
        <walkingareas value="0"/>
    </pedestrian>

</configuration>
-->

<net version="1.16" junctionCornerDetail="5" limitTurnSpeed="5.50" tlsIgnoreInternalJunctionJam="1" xmlns:xsi="http://www.w3.org/2001/XMLSchema-instance" xsi:noNamespaceSchemaLocation="http://sumo.dlr.de/xsd/net_file.xsd">

    <location netOffset="-419004.84,-5378448.99" convBoundary="0.00,0.00,5069.44,5385.49" origBoundary="1.808007,48.518395,1.987549,48.602981" projParameter="+proj=utm +zone=31 +ellps=WGS84 +datum=WGS84 +units=m +no_defs"/>

    <type id="highway.footway" priority="1" numLanes="1" speed="2.78" allow="pedestrian" oneway="1" width="2.00"/>
    <type id="highway.living_street" priority="2" numLanes="1" speed="2.78" disallow="tram rail_urban rail rail_electric rail_fast ship" oneway="0"/>
    <type id="highway.motorway" priority="14" numLanes="2" speed="39.44" allow="private emergency authority army vip passenger hov taxi bus coach delivery truck trailer motorcycle evehicle custom1 custom2" oneway="1"/>
    <type id="highway.path" priority="1" numLanes="1" speed="5.56" allow="pedestrian bicycle" oneway="0" width="2.00"/>
    <type id="highway.primary" priority="12" numLanes="2" speed="27.78" disallow="tram rail_urban rail rail_electric rail_fast ship" oneway="0"/>
    <type id="highway.residential" priority="3" numLanes="1" speed="13.89" disallow="tram rail_urban rail rail_electric rail_fast ship" oneway="0"/>
    <type id="highway.secondary" priority="11" numLanes="1" speed="27.78" disallow="tram rail_urban rail rail_electric rail_fast ship" oneway="0"/>
    <type id="highway.secondary_link" priority="6" numLanes="1" speed="22.22" disallow="tram rail_urban rail rail_electric rail_fast ship" oneway="0"/>
    <type id="highway.service" priority="1" numLanes="1" speed="5.56" allow="pedestrian delivery bicycle" oneway="0"/>
    <type id="highway.steps" priority="1" numLanes="1" speed="1.39" allow="pedestrian" oneway="1" width="2.00"/>
    <type id="highway.track" priority="1" numLanes="1" speed="5.56" allow="pedestrian motorcycle moped bicycle" oneway="0"/>
    <type id="highway.unclassified" priority="4" numLanes="1" speed="13.89" disallow="tram rail_urban rail rail_electric rail_fast ship" oneway="0"/>

    <edge id=":10182289683_0" function="internal">
        <lane id=":10182289683_0_0" index="0" disallow="tram rail_urban rail rail_electric rail_fast ship" speed="13.89" length="5.13" shape="3302.20,2171.47 3297.25,2170.10"/>
    </edge>
    <edge id=":10182289683_1" function="internal">
        <lane id=":10182289683_1_0" index="0" disallow="tram rail_urban rail rail_electric rail_fast ship" speed="13.89" length="5.13" shape="3298.11,2167.02 3303.05,2168.39"/>
    </edge>
    <edge id=":1034186179_0" function="internal">
        <lane id=":1034186179_0_0" index="0" allow="pedestrian motorcycle moped bicycle" speed="3.65" length="4.67" shape="1972.41,-1.32 1973.85,-1.34 1974.64,-0.91 1974.76,-0.03 1974.23,1.32"/>
    </edge>
    <edge id=":1034186910_0" function="internal">
        <lane id=":1034186910_0_0" index="0" allow="pedestrian bicycle" speed="5.15" length="6.49" width="2.00" shape="3276.60,692.37 3275.82,691.17 3274.64,690.70 3273.07,690.95 3271.10,691.93"/>
    </edge>
    <edge id=":1034186910_1" function="internal">
        <lane id=":1034186910_1_0" index="0" allow="pedestrian bicycle" speed="6.73" length="8.81" width="2.00" shape="3276.60,692.37 3275.78,689.54 3275.66,687.26 3276.23,685.51 3277.49,684.30"/>
    </edge>
    <edge id=":1034186910_2" function="internal">
        <lane id=":1034186910_2_0" index="0" allow="pedestrian bicycle" speed="2.89" length="2.92" width="2.00" shape="3276.60,692.37 3276.80,691.49 3277.18,691.08 3277.74,691.14 3278.47,691.66"/>
    </edge>
    <edge id=":1034186910_3" function="internal">
        <lane id=":1034186910_3_0" index="0" allow="pedestrian bicycle" speed="5.37" length="5.06" width="2.00" shape="3279.10,687.07 3278.34,687.78 3277.98,688.78 3278.02,690.08 3278.47,691.66"/>
    </edge>
    <edge id=":1034186910_4" function="internal">
        <lane id=":1034186910_4_0" index="0" disallow="tram rail_urban rail rail_electric rail_fast ship" speed="25.00" length="9.37" shape="3279.10,687.07 3271.10,691.93"/>
    </edge>
    <edge id=":1034186910_5" function="internal">
        <lane id=":1034186910_5_0" index="0" disallow="tram rail_urban rail rail_electric rail_fast ship" speed="25.00" length="9.45" shape="3269.42,689.21 3277.49,684.30"/>
    </edge>
    <edge id=":1034186910_6" function="internal">
        <lane id=":1034186910_6_0" index="0" allow="pedestrian bicycle" speed="6.75" length="3.80" width="2.00" shape="3269.42,689.21 3272.46,687.83 3272.92,687.82"/>
    </edge>
    <edge id=":1034186910_7" function="internal">
        <lane id=":1034186910_7_0" index="0" allow="pedestrian bicycle" speed="6.75" length="7.43" width="2.00" shape="3272.92,687.82 3274.98,687.78 3276.98,689.06 3278.47,691.66"/>
    </edge>
    <edge id=":1034186952_0" function="internal">
        <lane id=":1034186952_0_0" index="0" allow="pedestrian motorcycle moped bicycle" speed="3.65" length="4.67" shape="2131.50,166.89 2132.95,166.84 2133.74,167.25 2133.88,168.14 2133.38,169.49"/>
    </edge>
    <edge id=":10831842158_0" function="internal">
        <lane id=":10831842158_0_0" index="0" disallow="tram rail_urban rail rail_electric rail_fast ship" speed="8.33" length="7.99" shape="3095.37,2113.19 3087.67,2111.06"/>
    </edge>
    <edge id=":10831842158_1" function="internal">
        <lane id=":10831842158_1_0" index="0" disallow="tram rail_urban rail rail_electric rail_fast ship" speed="6.68" length="17.87" shape="3095.37,2113.19 3089.52,2111.12 3087.67,2109.26 3089.82,2107.61 3095.97,2106.16"/>
    </edge>
    <edge id=":10831842158_2" function="internal">
        <lane id=":10831842158_2_0" index="0" disallow="tram rail_urban rail rail_electric rail_fast ship" speed="3.65" length="4.67" shape="3095.37,2113.19 3094.43,2112.10 3094.25,2111.22 3094.85,2110.56 3096.22,2110.11"/>
    </edge>
    <edge id=":10831842158_3" function="internal">
        <lane id=":10831842158_3_0" index="0" disallow="tram rail_urban rail rail_electric rail_fast ship" speed="11.11" length="7.90" shape="3088.46,2107.96 3090.68,2108.17 3092.19,2107.65 3093.72,2106.84 3095.97,2106.16"/>
    </edge>
    <edge id=":10831842158_4" function="internal">
        <lane id=":10831842158_4_0" index="0" disallow="tram rail_urban rail rail_electric rail_fast ship" speed="8.33" length="8.05" shape="3088.46,2107.96 3096.22,2110.11"/>
    </edge>
    <edge id=":10831842158_5" function="internal">
        <lane id=":10831842158_5_0" index="0" disallow="tram rail_urban rail rail_electric rail_fast ship" speed="3.65" length="4.67" shape="3088.46,2107.96 3089.43,2109.03 3089.62,2109.91 3089.03,2110.58 3087.67,2111.06"/>
    </edge>
    <edge id=":10831872423_0" function="internal">
        <lane id=":10831872423_0_0" index="0" disallow="tram rail_urban rail rail_electric rail_fast ship" speed="13.89" length="13.14" shape="3525.29,2236.95 3512.66,2233.31"/>
    </edge>
    <edge id=":10831872423_1" function="internal">
        <lane id=":10831872423_1_0" index="0" disallow="tram rail_urban rail rail_electric rail_fast ship" speed="7.82" length="3.39" shape="3525.29,2236.95 3522.48,2235.63 3522.29,2235.42"/>
    </edge>
    <edge id=":10831872423_2" function="internal">
        <lane id=":10831872423_2_0" index="0" disallow="tram rail_urban rail rail_electric rail_fast ship" speed="3.65" length="1.44" shape="3525.29,2236.95 3524.36,2235.85"/>
    </edge>
    <edge id=":10831872423_9" function="internal">
        <lane id=":10831872423_9_0" index="0" disallow="tram rail_urban rail rail_electric rail_fast ship" speed="7.82" length="8.86" shape="3522.29,2235.42 3520.66,2233.59 3519.81,2230.81 3519.94,2227.31"/>
    </edge>
    <edge id=":10831872423_10" function="internal">
        <lane id=":10831872423_10_0" index="0" disallow="tram rail_urban rail rail_electric rail_fast ship" speed="3.65" length="3.23" shape="3524.36,2235.85 3524.20,2234.97 3524.80,2234.31 3526.18,2233.88"/>
    </edge>
    <edge id=":10831872423_3" function="internal">
        <lane id=":10831872423_3_0" index="0" disallow="tram rail_urban rail rail_electric rail_fast ship" speed="6.18" length="7.53" shape="3523.11,2227.88 3522.94,2230.07 3523.39,2231.79 3524.48,2233.06 3526.18,2233.88"/>
    </edge>
    <edge id=":10831872423_4" function="internal">
        <lane id=":10831872423_4_0" index="0" disallow="tram rail_urban rail rail_electric rail_fast ship" speed="7.64" length="13.68" shape="3523.11,2227.88 3521.86,2231.21 3519.70,2233.23 3516.64,2233.93 3512.66,2233.31"/>
    </edge>
    <edge id=":10831872423_5" function="internal">
        <lane id=":10831872423_5_0" index="0" disallow="tram rail_urban rail rail_electric rail_fast ship" speed="3.67" length="4.69" shape="3523.11,2227.88 3522.10,2228.92 3521.24,2229.18 3520.52,2228.64 3519.94,2227.31"/>
    </edge>
    <edge id=":10831872423_6" function="internal">
        <lane id=":10831872423_6_0" index="0" disallow="tram rail_urban rail rail_electric rail_fast ship" speed="6.00" length="8.22" shape="3513.54,2230.24 3516.07,2230.67 3517.98,2230.32 3519.27,2229.20 3519.94,2227.31"/>
    </edge>
    <edge id=":10831872423_7" function="internal">
        <lane id=":10831872423_7_0" index="0" disallow="tram rail_urban rail rail_electric rail_fast ship" speed="13.89" length="13.15" shape="3513.54,2230.24 3526.18,2233.88"/>
    </edge>
    <edge id=":10831872423_8" function="internal">
        <lane id=":10831872423_8_0" index="0" disallow="tram rail_urban rail rail_electric rail_fast ship" speed="3.65" length="1.44" shape="3513.54,2230.24 3514.48,2231.34"/>
    </edge>
    <edge id=":10831872423_11" function="internal">
        <lane id=":10831872423_11_0" index="0" disallow="tram rail_urban rail rail_electric rail_fast ship" speed="3.65" length="3.23" shape="3514.48,2231.34 3514.64,2232.22 3514.04,2232.88 3512.66,2233.31"/>
    </edge>
    <edge id=":10831872438_0" function="internal">
        <lane id=":10831872438_0_0" index="0" disallow="tram rail_urban rail rail_electric rail_fast ship" speed="5.78" length="4.16" shape="3254.37,2147.75 3252.99,2148.22 3251.96,2148.73 3251.28,2149.28 3250.95,2149.87"/>
    </edge>
    <edge id=":10831872438_1" function="internal">
        <lane id=":10831872438_1_0" index="0" disallow="tram rail_urban rail rail_electric rail_fast ship" speed="5.13" length="6.97" shape="3254.37,2147.75 3252.28,2148.07 3250.90,2147.61 3250.24,2146.37 3250.29,2144.37"/>
    </edge>
    <edge id=":10831872438_2" function="internal">
        <lane id=":10831872438_2_0" index="0" disallow="tram rail_urban rail rail_electric rail_fast ship" speed="11.11" length="5.31" shape="3247.86,2149.02 3248.45,2147.58 3249.15,2146.71 3249.81,2145.83 3250.29,2144.37"/>
    </edge>
    <edge id=":10831872438_3" function="internal">
        <lane id=":10831872438_3_0" index="0" disallow="tram rail_urban rail rail_electric rail_fast ship" speed="3.65" length="4.67" shape="3247.86,2149.02 3248.96,2148.08 3249.83,2147.90 3250.50,2148.50 3250.95,2149.87"/>
    </edge>
    <edge id=":10831872439_0" function="internal">
        <lane id=":10831872439_0_0" index="0" disallow="tram rail_urban rail rail_electric rail_fast ship" speed="13.89" length="14.44" shape="3254.51,2158.20 3240.61,2154.26"/>
    </edge>
    <edge id=":10831872439_1" function="internal">
        <lane id=":10831872439_1_0" index="0" disallow="tram rail_urban rail rail_electric rail_fast ship" speed="7.66" length="4.41" shape="3254.51,2158.20 3250.96,2156.76 3250.52,2156.38"/>
    </edge>
    <edge id=":10831872439_2" function="internal">
        <lane id=":10831872439_2_0" index="0" disallow="tram rail_urban rail rail_electric rail_fast ship" speed="3.65" length="1.44" shape="3254.51,2158.20 3253.56,2157.10"/>
    </edge>
    <edge id=":10831872439_9" function="internal">
        <lane id=":10831872439_9_0" index="0" disallow="tram rail_urban rail rail_electric rail_fast ship" speed="7.66" length="8.23" shape="3250.52,2156.38 3248.66,2154.79 3247.61,2152.27 3247.82,2149.21"/>
    </edge>
    <edge id=":10831872439_10" function="internal">
        <lane id=":10831872439_10_0" index="0" disallow="tram rail_urban rail rail_electric rail_fast ship" speed="3.65" length="3.23" shape="3253.56,2157.10 3253.39,2156.22 3253.99,2155.56 3255.36,2155.11"/>
    </edge>
    <edge id=":10831872439_3" function="internal">
        <lane id=":10831872439_3_0" index="0" disallow="tram rail_urban rail rail_electric rail_fast ship" speed="6.07" length="7.55" shape="3250.90,2150.07 3250.85,2151.72 3251.58,2153.11 3253.08,2154.24 3255.36,2155.11"/>
    </edge>
    <edge id=":10831872439_4" function="internal">
        <lane id=":10831872439_4_0" index="0" disallow="tram rail_urban rail rail_electric rail_fast ship" speed="7.51" length="12.71" shape="3250.90,2150.07 3249.64,2152.83 3247.50,2154.46 3244.49,2154.93 3240.61,2154.26"/>
    </edge>
    <edge id=":10831872439_5" function="internal">
        <lane id=":10831872439_5_0" index="0" disallow="tram rail_urban rail rail_electric rail_fast ship" speed="3.65" length="4.67" shape="3250.90,2150.07 3249.81,2151.01 3248.93,2151.18 3248.27,2150.58 3247.82,2149.21"/>
    </edge>
    <edge id=":10831872439_6" function="internal">
        <lane id=":10831872439_6_0" index="0" disallow="tram rail_urban rail rail_electric rail_fast ship" speed="5.92" length="7.50" shape="3241.49,2151.19 3243.93,2151.65 3245.80,2151.48 3247.09,2150.66 3247.82,2149.21"/>
    </edge>
    <edge id=":10831872439_7" function="internal">
        <lane id=":10831872439_7_0" index="0" disallow="tram rail_urban rail rail_electric rail_fast ship" speed="13.89" length="14.41" shape="3241.49,2151.19 3255.36,2155.11"/>
    </edge>
    <edge id=":10831872439_8" function="internal">
        <lane id=":10831872439_8_0" index="0" disallow="tram rail_urban rail rail_electric rail_fast ship" speed="3.65" length="1.44" shape="3241.49,2151.19 3242.43,2152.29"/>
    </edge>
    <edge id=":10831872439_11" function="internal">
        <lane id=":10831872439_11_0" index="0" disallow="tram rail_urban rail rail_electric rail_fast ship" speed="3.65" length="3.23" shape="3242.43,2152.29 3242.59,2153.17 3241.98,2153.82 3240.61,2154.26"/>
    </edge>
    <edge id=":10831872482_0" function="internal">
        <lane id=":10831872482_0_0" index="0" disallow="tram rail_urban rail rail_electric rail_fast ship" speed="8.33" length="7.74" shape="3102.73,2244.95 3100.40,2246.13 3098.63,2247.30 3097.42,2248.46 3096.75,2249.62"/>
    </edge>
    <edge id=":10831872482_1" function="internal">
        <lane id=":10831872482_1_0" index="0" disallow="tram rail_urban rail rail_electric rail_fast ship" speed="8.33" length="8.13" shape="3099.64,2242.01 3096.75,2249.62"/>
    </edge>
    <edge id=":10831872488_0" function="internal">
        <lane id=":10831872488_0_0" index="0" allow="pedestrian delivery bicycle" speed="5.28" length="4.90" shape="3483.44,2184.15 3482.15,2183.59 3480.99,2183.50 3479.94,2183.86 3479.03,2184.67"/>
    </edge>
    <edge id=":10831872488_1" function="internal">
        <lane id=":10831872488_1_0" index="0" disallow="tram rail_urban rail rail_electric rail_fast ship" speed="8.33" length="7.14" shape="3483.44,2184.15 3481.66,2183.01 3480.55,2182.09 3479.49,2181.08 3477.88,2179.70"/>
    </edge>
    <edge id=":10831872488_2" function="internal">
        <lane id=":10831872488_2_0" index="0" disallow="tram rail_urban rail rail_electric rail_fast ship" speed="8.33" length="7.15" shape="3479.87,2177.20 3481.49,2178.58 3482.56,2179.58 3483.68,2180.49 3485.47,2181.63"/>
    </edge>
    <edge id=":10831872488_3" function="internal">
        <lane id=":10831872488_3_0" index="0" allow="pedestrian delivery bicycle" speed="6.30" length="2.22" shape="3479.87,2177.20 3481.02,2178.62 3481.07,2179.01"/>
    </edge>
    <edge id=":10831872488_7" function="internal">
        <lane id=":10831872488_7_0" index="0" allow="pedestrian delivery bicycle" speed="6.30" length="6.26" shape="3481.07,2179.01 3481.26,2180.34 3480.59,2182.36 3479.03,2184.67"/>
    </edge>
    <edge id=":10831872488_4" function="internal">
        <lane id=":10831872488_4_0" index="0" allow="pedestrian delivery bicycle" speed="4.33" length="3.46" shape="3476.55,2182.64 3477.14,2181.94 3477.75,2181.11 3478.09,2180.32 3477.88,2179.70"/>
    </edge>
    <edge id=":10831872488_5" function="internal">
        <lane id=":10831872488_5_0" index="0" allow="pedestrian delivery bicycle" speed="6.95" length="9.89" shape="3476.55,2182.64 3478.40,2181.00 3480.50,2180.29 3482.86,2180.50 3485.47,2181.63"/>
    </edge>
    <edge id=":10831872488_6" function="internal">
        <lane id=":10831872488_6_0" index="0" allow="pedestrian delivery bicycle" speed="3.65" length="4.67" shape="3476.55,2182.64 3477.93,2182.22 3478.80,2182.42 3479.17,2183.24 3479.03,2184.67"/>
    </edge>
    <edge id=":10831872501_0" function="internal">
        <lane id=":10831872501_0_0" index="0" allow="pedestrian delivery bicycle" speed="5.56" length="4.94" shape="3446.69,2184.83 3446.77,2183.60 3446.48,2182.49 3445.80,2181.50 3444.75,2180.63"/>
    </edge>
    <edge id=":10831872501_1" function="internal">
        <lane id=":10831872501_1_0" index="0" allow="pedestrian delivery bicycle" speed="3.69" length="4.84" shape="3446.69,2184.83 3447.45,2183.55 3448.26,2183.09 3449.11,2183.46 3450.00,2184.66"/>
    </edge>
    <edge id=":10831872501_2" function="internal">
        <lane id=":10831872501_2_0" index="0" allow="pedestrian delivery bicycle" speed="5.56" length="8.06" shape="3446.51,2177.95 3448.34,2179.43 3449.53,2181.05 3450.09,2182.79 3450.00,2184.66"/>
    </edge>
    <edge id=":10831872501_3" function="internal">
        <lane id=":10831872501_3_0" index="0" allow="pedestrian delivery bicycle" speed="3.65" length="4.67" shape="3446.51,2177.95 3447.07,2179.28 3446.97,2180.17 3446.19,2180.62 3444.75,2180.63"/>
    </edge>
    <edge id=":11047788073_0" function="internal">
        <lane id=":11047788073_0_0" index="0" allow="pedestrian delivery bicycle" speed="5.56" length="6.20" shape="2669.79,3025.31 2664.43,3028.43"/>
    </edge>
    <edge id=":11047788073_1" function="internal">
        <lane id=":11047788073_1_0" index="0" allow="pedestrian delivery bicycle" speed="5.56" length="10.14" shape="2669.79,3025.31 2666.93,3026.53 2665.06,3026.28 2664.20,3024.55 2664.34,3021.34"/>
    </edge>
    <edge id=":11047788073_2" function="internal">
        <lane id=":11047788073_2_0" index="0" allow="pedestrian delivery bicycle" speed="3.65" length="4.67" shape="2669.79,3025.31 2668.35,3025.23 2667.61,3024.73 2667.55,3023.84 2668.18,3022.55"/>
    </edge>
    <edge id=":11047788073_3" function="internal">
        <lane id=":11047788073_3_0" index="0" allow="pedestrian delivery bicycle" speed="5.56" length="4.66" shape="2662.83,3025.66 2663.26,3025.20 2663.65,3024.32 2664.01,3023.04 2664.34,3021.34"/>
    </edge>
    <edge id=":11047788073_4" function="internal">
        <lane id=":11047788073_4_0" index="0" allow="pedestrian delivery bicycle" speed="5.56" length="6.20" shape="2662.83,3025.66 2668.18,3022.55"/>
    </edge>
    <edge id=":11047788073_5" function="internal">
        <lane id=":11047788073_5_0" index="0" allow="pedestrian delivery bicycle" speed="3.65" length="4.67" shape="2662.83,3025.66 2664.26,3025.75 2665.01,3026.24 2665.07,3027.13 2664.43,3028.43"/>
    </edge>
    <edge id=":11047788076_0" function="internal">
        <lane id=":11047788076_0_0" index="0" disallow="tram rail_urban rail rail_electric rail_fast ship" speed="13.89" length="6.22" shape="2673.63,2996.46 2667.62,2994.88"/>
    </edge>
    <edge id=":11047788076_1" function="internal">
        <lane id=":11047788076_1_0" index="0" disallow="tram rail_urban rail rail_electric rail_fast ship" speed="13.89" length="6.21" shape="2668.47,2991.79 2674.47,2993.38"/>
    </edge>
    <edge id=":11047788076_2" function="internal">
        <lane id=":11047788076_2_0" index="0" allow="pedestrian delivery bicycle" speed="4.70" length="5.60" shape="2669.02,2998.92 2669.85,2997.46 2669.89,2996.31 2669.15,2995.44 2667.62,2994.88"/>
    </edge>
    <edge id=":11047788076_3" function="internal">
        <lane id=":11047788076_3_0" index="0" allow="pedestrian delivery bicycle" speed="7.16" length="7.88" shape="2669.02,2998.92 2671.03,2996.39 2672.60,2994.62 2673.75,2993.62 2674.47,2993.38"/>
    </edge>
    <edge id=":11107612625_0" function="internal">
        <lane id=":11107612625_0_0" index="0" disallow="tram rail_urban rail rail_electric rail_fast ship" speed="8.33" length="8.27" shape="3114.41,2118.47 3106.44,2116.26"/>
    </edge>
    <edge id=":11107612625_1" function="internal">
        <lane id=":11107612625_1_0" index="0" disallow="tram rail_urban rail rail_electric rail_fast ship" speed="7.02" length="9.69" shape="3114.41,2118.47 3113.54,2117.66 3113.11,2115.86 3113.11,2113.05 3113.55,2109.23"/>
    </edge>
    <edge id=":11107612625_2" function="internal">
        <lane id=":11107612625_2_0" index="0" disallow="tram rail_urban rail rail_electric rail_fast ship" speed="3.65" length="4.67" shape="3114.41,2118.47 3113.47,2117.37 3113.29,2116.50 3113.89,2115.83 3115.27,2115.38"/>
    </edge>
    <edge id=":11107612625_3" function="internal">
        <lane id=":11107612625_3_0" index="0" disallow="tram rail_urban rail rail_electric rail_fast ship" speed="6.15" length="8.68" shape="3107.29,2113.17 3109.72,2113.49 3111.57,2112.94 3112.85,2111.52 3113.55,2109.23"/>
    </edge>
    <edge id=":11107612625_4" function="internal">
        <lane id=":11107612625_4_0" index="0" disallow="tram rail_urban rail rail_electric rail_fast ship" speed="8.33" length="8.27" shape="3107.29,2113.17 3115.27,2115.38"/>
    </edge>
    <edge id=":11107612625_5" function="internal">
        <lane id=":11107612625_5_0" index="0" disallow="tram rail_urban rail rail_electric rail_fast ship" speed="3.65" length="4.67" shape="3107.29,2113.17 3108.24,2114.26 3108.41,2115.14 3107.81,2115.81 3106.44,2116.26"/>
    </edge>
    <edge id=":11210488310_0" function="internal">
        <lane id=":11210488310_0_0" index="0" allow="pedestrian delivery bicycle" speed="5.56" length="9.40" shape="3353.87,2180.33 3344.84,2177.74"/>
    </edge>
    <edge id=":11210488310_1" function="internal">
        <lane id=":11210488310_1_0" index="0" allow="pedestrian delivery bicycle" speed="5.56" length="10.20" shape="3353.87,2180.33 3351.32,2179.19 3349.75,2177.50 3349.17,2175.27 3349.58,2172.50"/>
    </edge>
    <edge id=":11210488310_2" function="internal">
        <lane id=":11210488310_2_0" index="0" allow="pedestrian delivery bicycle" speed="3.65" length="4.67" shape="3353.87,2180.33 3352.94,2179.23 3352.78,2178.35 3353.38,2177.70 3354.76,2177.26"/>
    </edge>
    <edge id=":11210488310_3" function="internal">
        <lane id=":11210488310_3_0" index="0" allow="pedestrian delivery bicycle" speed="5.03" length="5.01" shape="3352.65,2173.41 3352.45,2174.77 3352.73,2175.87 3353.50,2176.70 3354.76,2177.26"/>
    </edge>
    <edge id=":11210488310_4" function="internal">
        <lane id=":11210488310_4_0" index="0" allow="pedestrian delivery bicycle" speed="5.56" length="10.16" shape="3352.65,2173.41 3351.49,2175.95 3349.80,2177.52 3347.58,2178.12 3344.84,2177.74"/>
    </edge>
    <edge id=":11210488310_5" function="internal">
        <lane id=":11210488310_5_0" index="0" allow="pedestrian delivery bicycle" speed="3.65" length="4.67" shape="3352.65,2173.41 3351.54,2174.34 3350.66,2174.49 3350.01,2173.88 3349.58,2172.50"/>
    </edge>
    <edge id=":11210488310_6" function="internal">
        <lane id=":11210488310_6_0" index="0" allow="pedestrian delivery bicycle" speed="5.07" length="5.04" shape="3345.72,2174.66 3347.08,2174.85 3348.17,2174.55 3349.01,2173.77 3349.58,2172.50"/>
    </edge>
    <edge id=":11210488310_7" function="internal">
        <lane id=":11210488310_7_0" index="0" allow="pedestrian delivery bicycle" speed="5.56" length="9.40" shape="3345.72,2174.66 3354.76,2177.26"/>
    </edge>
    <edge id=":11210488310_8" function="internal">
        <lane id=":11210488310_8_0" index="0" allow="pedestrian delivery bicycle" speed="3.65" length="4.67" shape="3345.72,2174.66 3346.66,2175.76 3346.82,2176.64 3346.21,2177.30 3344.84,2177.74"/>
    </edge>
    <edge id=":11210488311_0" function="internal">
        <lane id=":11210488311_0_0" index="0" allow="pedestrian delivery bicycle" speed="5.11" length="5.12" shape="3382.86,2161.55 3381.47,2161.35 3380.35,2161.64 3379.49,2162.43 3378.90,2163.69"/>
    </edge>
    <edge id=":11210488311_1" function="internal">
        <lane id=":11210488311_1_0" index="0" allow="pedestrian delivery bicycle" speed="5.56" length="9.48" shape="3382.86,2161.55 3373.75,2158.91"/>
    </edge>
    <edge id=":11210488311_2" function="internal">
        <lane id=":11210488311_2_0" index="0" allow="pedestrian delivery bicycle" speed="5.56" length="10.22" shape="3382.86,2161.55 3380.30,2160.39 3378.74,2158.70 3378.17,2156.46 3378.60,2153.69"/>
    </edge>
    <edge id=":11210488311_3" function="internal">
        <lane id=":11210488311_3_0" index="0" allow="pedestrian delivery bicycle" speed="3.65" length="4.67" shape="3382.86,2161.55 3381.93,2160.45 3381.77,2159.57 3382.37,2158.91 3383.75,2158.48"/>
    </edge>
    <edge id=":11210488311_4" function="internal">
        <lane id=":11210488311_4_0" index="0" allow="pedestrian delivery bicycle" speed="5.03" length="5.01" shape="3381.66,2154.62 3381.45,2155.98 3381.73,2157.08 3382.49,2157.91 3383.75,2158.48"/>
    </edge>
    <edge id=":11210488311_5" function="internal">
        <lane id=":11210488311_5_0" index="0" allow="pedestrian delivery bicycle" speed="5.56" length="9.49" shape="3381.66,2154.62 3378.90,2163.69"/>
    </edge>
    <edge id=":11210488311_6" function="internal">
        <lane id=":11210488311_6_0" index="0" allow="pedestrian delivery bicycle" speed="5.56" length="10.23" shape="3381.66,2154.62 3380.48,2157.16 3378.76,2158.71 3376.52,2159.30 3373.75,2158.91"/>
    </edge>
    <edge id=":11210488311_7" function="internal">
        <lane id=":11210488311_7_0" index="0" allow="pedestrian delivery bicycle" speed="3.65" length="4.67" shape="3381.66,2154.62 3380.55,2155.54 3379.66,2155.69 3379.02,2155.07 3378.60,2153.69"/>
    </edge>
    <edge id=":11210488311_8" function="internal">
        <lane id=":11210488311_8_0" index="0" allow="pedestrian delivery bicycle" speed="5.11" length="5.12" shape="3374.64,2155.83 3376.03,2156.03 3377.15,2155.74 3378.01,2154.96 3378.60,2153.69"/>
    </edge>
    <edge id=":11210488311_9" function="internal">
        <lane id=":11210488311_9_0" index="0" allow="pedestrian delivery bicycle" speed="5.56" length="9.49" shape="3374.64,2155.83 3383.75,2158.48"/>
    </edge>
    <edge id=":11210488311_10" function="internal">
        <lane id=":11210488311_10_0" index="0" allow="pedestrian delivery bicycle" speed="5.56" length="10.23" shape="3374.64,2155.83 3377.20,2156.99 3378.76,2158.68 3379.33,2160.92 3378.90,2163.69"/>
    </edge>
    <edge id=":11210488311_11" function="internal">
        <lane id=":11210488311_11_0" index="0" allow="pedestrian delivery bicycle" speed="3.65" length="4.67" shape="3374.64,2155.83 3375.57,2156.94 3375.73,2157.82 3375.12,2158.47 3373.75,2158.91"/>
    </edge>
    <edge id=":11210488311_12" function="internal">
        <lane id=":11210488311_12_0" index="0" allow="pedestrian delivery bicycle" speed="5.03" length="5.02" shape="3375.84,2162.76 3376.05,2161.40 3375.77,2160.31 3375.00,2159.47 3373.75,2158.91"/>
    </edge>
    <edge id=":11210488311_13" function="internal">
        <lane id=":11210488311_13_0" index="0" allow="pedestrian delivery bicycle" speed="5.56" length="9.48" shape="3375.84,2162.76 3378.60,2153.69"/>
    </edge>
    <edge id=":11210488311_14" function="internal">
        <lane id=":11210488311_14_0" index="0" allow="pedestrian delivery bicycle" speed="5.56" length="10.23" shape="3375.84,2162.76 3377.02,2160.23 3378.74,2158.67 3380.98,2158.08 3383.75,2158.48"/>
    </edge>
    <edge id=":11210488311_15" function="internal">
        <lane id=":11210488311_15_0" index="0" allow="pedestrian delivery bicycle" speed="3.65" length="4.67" shape="3375.84,2162.76 3376.95,2161.85 3377.83,2161.70 3378.48,2162.31 3378.90,2163.69"/>
    </edge>
    <edge id=":11210488312_0" function="internal">
        <lane id=":11210488312_0_0" index="0" allow="pedestrian delivery bicycle" speed="3.65" length="4.67" shape="3386.00,2129.37 3387.11,2128.46 3388.00,2128.31 3388.64,2128.92 3389.06,2130.31"/>
    </edge>
    <edge id=":11210488321_0" function="internal">
        <lane id=":11210488321_0_0" index="0" allow="pedestrian delivery bicycle" speed="5.38" length="5.41" shape="3299.95,2143.51 3298.62,2143.48 3297.52,2143.95 3296.67,2144.92 3296.05,2146.39"/>
    </edge>
    <edge id=":11210488321_1" function="internal">