<edges xmlns:xsi="http://www.w3.org/2001/XMLSchema-instance" version="1.16" xsi:noNamespaceSchemaLocation="http://sumo.dlr.de/xsd/edges_file.xsd">
    <location netOffset="-419004.84,-5378448.99" convBoundary="0.00,0.00,5069.44,5385.49" origBoundary="1.808007,48.518395,1.987549,48.602981" projParameter="+proj=utm +zone=31 +ellps=WGS84 +datum=WGS84 +units=m +no_defs" />

    <edge id="-100468675#0" from="1617890018" to="1161457643" priority="3" type="highway.residential" numLanes="1" speed="8.33" disallow="tram rail_urban rail rail_electric rail_fast ship" />
    <edge id="-100468675#1" from="1172949639" to="1617890018" priority="3" type="highway.residential" numLanes="1" speed="8.33" shape="2581.15,3024.97 2579.14,3033.95 2564.70,3090.74" disallow="tram rail_urban rail rail_electric rail_fast ship" />
    <edge id="-100468675#2" from="1172949655" to="1172949639" priority="3" type="highway.residential" numLanes="1" speed="8.33" shape="2592.81,2976.70 2589.66,2989.76 2581.15,3024.97" disallow="tram rail_urban rail rail_electric rail_fast ship" />
    <edge id="-100468675#3" from="534718083" to="1172949655" priority="3" type="highway.residential" numLanes="1" speed="8.33" shape="2612.43,2783.00 2611.77,2834.46 2609.47,2862.95 2602.23,2917.15 2592.81,2976.70" disallow="tram rail_urban rail rail_electric rail_fast ship" />
    <edge id="-100468681#0" from="4171544027" to="1161457663" priority="11" type="highway.secondary" numLanes="1" speed="13.89" shape="2679.74,3089.07 2615.25,3126.37 2597.14,3134.84" disallow="tram rail_urban rail rail_electric rail_fast ship">
        <param key="ref" value="D 29" />
    </edge>
    <edge id="-100468681#1" from="1333258214" to="4171544027" priority="11" type="highway.secondary" numLanes="1" speed="13.89" shape="3043.26,2794.04 3021.76,2852.55 3008.57,2876.99 2995.71,2894.10 2973.27,2913.62 2945.40,2931.85 2923.90,2944.46 2679.74,3089.07" disallow="tram rail_urban rail rail_electric rail_fast ship">
        <param key="ref" value="D 29" />
    </edge>
    <edge id="-100468681#2" from="1172966013" to="1333258214" priority="11" type="highway.secondary" numLanes="1" speed="13.89" disallow="tram rail_urban rail rail_electric rail_fast ship">
        <param key="ref" value="D 29" />
    </edge>
    <edge id="-100468681#3" from="1173079964" to="1172966013" priority="11" type="highway.secondary" numLanes="1" speed="13.89" shape="3077.88,2693.28 3076.21,2701.16 3071.05,2716.80 3059.69,2747.72" disallow="tram rail_urban rail rail_electric rail_fast ship">
        <param key="ref" value="D 29" />
    </edge>
    <edge id="-100468681#4" from="1173060683" to="1173079964" priority="11" type="highway.secondary" numLanes="1" speed="13.89" shape="3068.38,2625.94 3070.72,2633.70 3076.18,2653.45 3078.68,2668.13 3078.98,2682.00 3077.88,2693.28" disallow="tram rail_urban rail rail_electric rail_fast ship">
        <param key="ref" value="D 29" />
    </edge>
    <edge id="-100468681#5" from="4171595316" to="1173060683" priority="11" type="highway.secondary" numLanes="1" speed="13.89" shape="3047.28,2562.00 3061.58,2605.33 3068.38,2625.94" disallow="tram rail_urban rail rail_electric rail_fast ship">
        <param key="ref" value="D 29" />
    </edge>
    <edge id="-100468681#6" from="1162051812" to="4171595316" priority="11" type="highway.secondary" numLanes="1" speed="13.89" disallow="tram rail_urban rail rail_electric rail_fast ship">
        <param key="ref" value="D 29" />
    </edge>
    <edge id="-100468681#7" from="4171250157" to="1162051812" priority="11" type="highway.secondary" numLanes="1" speed="13.89" shape="3023.43,2486.79 3031.67,2512.56 3044.86,2553.87" disallow="tram rail_urban rail rail_electric rail_fast ship">
        <param key="ref" value="D 29" />
    </edge>
    <edge id="-100468681#8" from="1161457771" to="4171250157" priority="11" type="highway.secondary" numLanes="1" speed="13.89" shape="3021.86,2408.52 3017.67,2431.42 3016.42,2441.43 3016.23,2453.49 3018.10,2466.73 3020.63,2477.88 3023.43,2486.79" disallow="tram rail_urban rail rail_electric rail_fast ship">
        <param key="ref" value="D 29" />
    </edge>
    <edge id="-100488715#0" from="1161680943" to="1161680941" priority="3" type="highway.residential" numLanes="1" speed="8.33" shape="2134.23,1824.06 2069.34,1774.27 2053.44,1762.84 2029.02,1745.29 2007.25,1732.78 2003.77,1731.55 1998.51,1729.69" disallow="tram rail_urban rail rail_electric rail_fast ship" />
    <edge id="-100488715#1" from="1178045782" to="1161680943" priority="3" type="highway.residential" numLanes="1" speed="8.33" shape="2163.68,1857.79 2146.68,1836.90 2134.23,1824.06" disallow="tram rail_urban rail rail_electric rail_fast ship" />
    <edge id="-100488715#2" from="1161680870" to="1178045782" priority="3" type="highway.residential" numLanes="1" speed="8.33" shape="2263.24,1964.55 2236.85,1944.95 2224.81,1932.89 2163.68,1857.79" disallow="tram rail_urban rail rail_electric rail_fast ship" />
    <edge id="-100488715#3" from="1171084380" to="1161680870" priority="3" type="highway.residential" numLanes="1" speed="8.33" shape="2437.54,2031.56 2434.14,2029.61 2418.63,2023.71 2372.16,2012.92 2352.71,2008.06 2328.47,2001.69 2318.52,1997.88 2310.35,1993.26 2288.78,1979.16 2263.24,1964.55" disallow="tram rail_urban rail rail_electric rail_fast ship" />
    <edge id="-100488715#4" from="1161680892" to="1171084380" priority="3" type="highway.residential" numLanes="1" speed="8.33" disallow="tram rail_urban rail rail_electric rail_fast ship" />
    <edge id="-100488715#5" from="1173027927" to="1161680892" priority="3" type="highway.residential" numLanes="1" speed="8.33" disallow="tram rail_urban rail rail_electric rail_fast ship" />
    <edge id="-100488715#6" from="1173027844" to="1173027927" priority="3" type="highway.residential" numLanes="1" speed="8.33" shape="2635.80,2163.65 2518.61,2085.86 2497.90,2071.75" disallow="tram rail_urban rail rail_electric rail_fast ship" />
    <edge id="-100488715#7" from="1161680825" to="1173027844" priority="3" type="highway.residential" numLanes="1" speed="8.33" shape="2719.39,2214.18 2713.20,2207.43 2635.80,2163.65" disallow="tram rail_urban rail rail_electric rail_fast ship" />
    <edge id="-100525438#0" from="1162051794" to="1162051812" priority="3" type="highway.residential" numLanes="1" speed="8.33" shape="2939.61,2555.66 2984.15,2557.47 3019.83,2556.15 3038.40,2554.44 3041.64,2554.16 3044.86,2553.87" disallow="tram rail_urban rail rail_electric rail_fast ship" />
    <edge id="-100525438#1" from="1162051803" to="1162051794" priority="3" type="highway.residential" numLanes="1" speed="8.33" shape="2756.48,2547.97 2816.32,2546.94 2840.28,2548.19 2939.61,2555.66" disallow="tram rail_urban rail rail_electric rail_fast ship" />
    <edge id="-100525438#2" from="1162051787" to="1162051803" priority="3" type="highway.residential" numLanes="1" speed="8.33" shape="2683.44,2535.97 2710.21,2543.58 2719.42,2545.37 2756.48,2547.97" disallow="tram rail_urban rail rail_electric rail_fast ship" />
    <edge id="-100525440" from="2866251561" to="1162051805" priority="3" type="highway.residential" numLanes="1" speed="13.89" disallow="tram rail_urban rail rail_electric rail_fast ship" />
    <edge id="-100525445" from="171981942" to="258908518" priority="3" type="highway.residential" numLanes="1" speed="8.33" shape="2615.51,1980.16 2617.11,1975.27 2641.37,1901.20 2641.97,1899.37 2643.52,1894.63" disallow="tram rail_urban rail rail_electric rail_fast ship" />
    <edge id="-1006827381" from="847832096" to="1171068836" priority="3" type="highway.residential" numLanes="1" speed="8.33" disallow="tram rail_urban rail rail_electric rail_fast ship" />
    <edge id="-101411571#0" from="1171034423" to="847832020" priority="3" type="highway.residential" numLanes="1" speed="13.89" disallow="tram rail_urban rail rail_electric rail_fast ship" />
    <edge id="-101411571#1" from="1171034464" to="1171034423" priority="3" type="highway.residential" numLanes="1" speed="13.89" disallow="tram rail_urban rail rail_electric rail_fast ship" />
    <edge id="-101415864#0" from="1171060052" to="1171052248" priority="3" type="highway.residential" numLanes="1" speed="13.89" disallow="tram rail_urban rail rail_electric rail_fast ship" />
    <edge id="-101415864#1" from="1171052198" to="1171060052" priority="3" type="highway.residential" numLanes="1" speed="13.89" disallow="tram rail_urban rail rail_electric rail_fast ship" />
    <edge id="-101415865#0" from="1171052112" to="1171034472" priority="3" type="highway.residential" numLanes="1" speed="8.33" shape="2353.24,1419.43 2384.60,1458.46 2399.82,1477.23 2421.57,1504.15 2430.94,1513.93 2467.41,1551.96 2496.47,1576.64 2537.79,1607.52 2548.31,1619.35" disallow="tram rail_urban rail rail_electric rail_fast ship" />
    <edge id="-101415865#1" from="1351127446" to="1171052112" priority="3" type="highway.residential" numLanes="1" speed="8.33" disallow="tram rail_urban rail rail_electric rail_fast ship" />
    <edge id="-101415865#2" from="1171052110" to="1351127446" priority="3" type="highway.residential" numLanes="1" speed="8.33" shape="2274.54,1166.94 2277.26,1170.20 2278.16,1171.28 2280.54,1187.23 2283.38,1266.88 2283.91,1276.35 2285.36,1281.06 2290.47,1292.63 2321.72,1355.96" disallow="tram rail_urban rail rail_electric rail_fast ship" />
    <edge id="-101416507" from="1171060060" to="1171060052" priority="3" type="highway.residential" numLanes="1" speed="13.89" shape="3457.98,2019.68 3418.58,1996.46 3414.02,1996.30 3409.78,1997.35 3406.36,2000.73 3397.91,2013.19 3394.38,2015.11 3389.23,2015.57 3383.84,2013.77 3344.57,1988.11" disallow="tram rail_urban rail rail_electric rail_fast ship" />
    <edge id="-101416509" from="1171060031" to="1171046127" priority="3" type="highway.residential" numLanes="1" speed="13.89" shape="3443.06,2079.49 3399.85,2053.03 3395.68,2052.20 3390.77,2053.53 3386.93,2056.05 3367.73,2086.60" disallow="tram rail_urban rail rail_electric rail_fast ship" />
    <edge id="-101418584#0" from="8638578434" to="1171084257" priority="3" type="highway.residential" numLanes="1" speed="8.33" shape="2289.95,1865.67 2178.65,1790.69 2169.00,1784.90 2155.72,1782.31 2147.04,1777.40 2120.42,1759.17" disallow="tram rail_urban rail rail_electric rail_fast ship" />
    <edge id="-101418584#1" from="1171084344" to="8638578434" priority="3" type="highway.residential" numLanes="1" speed="8.33" shape="2485.77,1995.53 2454.74,1978.21 2346.67,1903.89 2289.95,1865.67" disallow="tram rail_urban rail rail_electric rail_fast ship" />
    <edge id="-101418584#2" from="1353867565" to="1171084344" priority="3" type="highway.residential" numLanes="1" speed="8.33" disallow="tram rail_urban rail rail_electric rail_fast ship" />
    <edge id="-101418584#3" from="1171084196" to="1353867565" priority="3" type="highway.residential" numLanes="1" speed="8.33" shape="2583.23,2043.19 2563.22,2033.41 2559.63,2031.72" disallow="tram rail_urban rail rail_electric rail_fast ship" />
    <edge id="-101418584#4" from="1171084338" to="1171084196" priority="3" type="highway.residential" numLanes="1" speed="8.33" disallow="tram rail_urban rail rail_electric rail_fast ship" />
    <edge id="-101418587" from="1171084432" to="1171084338" priority="3" type="highway.residential" numLanes="1" speed="13.89" shape="2614.68,2062.60 2603.22,2057.59 2590.91,2046.88" disallow="tram rail_urban rail rail_electric rail_fast ship" />
    <edge id="-101418589" from="1171084202" to="1171084086" priority="2" type="highway.living_street" numLanes="1" speed="2.78" disallow="tram rail_urban rail rail_electric rail_fast ship" />
    <edge id="-101418591" from="1171084201" to="1171084234" priority="2" type="highway.living_street" numLanes="1" speed="2.78" disallow="tram rail_urban rail rail_electric rail_fast ship" />
    <edge id="-101418592" from="1171084344" to="1171084380" priority="3" type="highway.residential" numLanes="1" speed="13.89" shape="2485.77,1995.53 2479.56,2004.10 2459.48,2016.62 2440.86,2029.31 2437.54,2031.56" disallow="tram rail_urban rail rail_electric rail_fast ship" />
    <edge id="-101594809#0" from="1172926241" to="1172926260" priority="3" type="highway.residential" numLanes="1" speed="8.33" shape="3544.58,2364.27 3500.56,2504.18 3496.08,2508.39 3469.12,2519.99 3426.60,2506.73 3411.18,2501.92" disallow="tram rail_urban rail rail_electric rail_fast ship" />
    <edge id="-101594809#1" from="1172926171" to="1172926241" priority="3" type="highway.residential" numLanes="1" speed="8.33" disallow="tram rail_urban rail rail_electric rail_fast ship" />
    <edge id="-101594826" from="1172926236" to="1172926247" priority="3" type="highway.residential" numLanes="1" speed="8.33" shape="2905.01,2249.97 2829.70,2199.32 2827.10,2197.39 2826.07,2194.04 2826.79,2189.50 2840.22,2156.60 2843.22,2149.90" disallow="tram rail_urban rail rail_electric rail_fast ship" />
    <edge id="-101594830" from="1172926250" to="1172926211" priority="3" type="highway.residential" numLanes="1" speed="8.33" shape="2977.51,2332.50 2969.88,2301.53 2967.33,2288.43 2964.63,2269.34 2962.62,2244.43 2961.36,2203.69 2963.11,2197.96 2964.15,2192.42 2965.20,2186.87" disallow="tram rail_urban rail rail_electric rail_fast ship" />
    <edge id="-101594836#0" from="1172926260" to="1172926188" priority="3" type="highway.residential" numLanes="1" speed="8.33" shape="3411.18,2501.92 3408.47,2514.30 3403.94,2522.48 3381.68,2541.95" disallow="tram rail_urban rail rail_electric rail_fast ship" />
    <edge id="-101594836#1" from="1172926232" to="1172926260" priority="3" type="highway.residential" numLanes="1" speed="8.33" shape="3455.47,2354.27 3451.22,2368.52 3416.43,2484.44 3411.18,2501.92" disallow="tram rail_urban rail rail_electric rail_fast ship" />
    <edge id="-101594843" from="1172926229" to="1929238581" priority="3" type="highway.residential" numLanes="1" speed="8.33" shape="3504.88,2257.26 3474.29,2285.01 3467.56,2311.75 3464.22,2322.55" disallow="tram rail_urban rail rail_electric rail_fast ship" />
    <edge id="-101599070" from="1172949639" to="1172949591" priority="3" type="highway.residential" numLanes="1" speed="13.89" shape="2581.15,3024.97 2533.52,3013.31 2527.16,3011.03 2520.58,3007.76 2515.19,3003.89 2473.81,2973.90 2467.05,2970.83 2459.49,2968.37 2432.14,2965.00" disallow="tram rail_urban rail rail_electric rail_fast ship" />
    <edge id="-101599072" from="1172926202" to="1172949652" priority="3" type="highway.residential" numLanes="1" speed="8.33" shape="3443.59,2333.40 3429.93,2329.45 3368.32,2311.60" disallow="tram rail_urban rail rail_electric rail_fast ship" />
    <edge id="-101599076#0" from="1617895855" to="1172949672" priority="3" type="highway.residential" numLanes="1" speed="13.89" shape="2825.57,2936.95 2812.28,2939.99 2808.14,2941.82 2710.25,3000.68 2696.98,3002.31" disallow="tram rail_urban rail rail_electric rail_fast ship" />
    <edge id="-101599076#1" from="1172949659" to="1617895855" priority="3" type="highway.residential" numLanes="1" speed="13.89" disallow="tram rail_urban rail rail_electric rail_fast ship" />
    <edge id="-101599083#0" from="11047788076" to="1172949655" priority="3" type="highway.residential" numLanes="1" speed="13.89" shape="2672.40,2994.47 2669.14,2993.57 2611.20,2980.93 2592.81,2976.70" disallow="tram rail_urban rail rail_electric rail_fast ship" />
    <edge id="-101599083#1" from="1172949680" to="11047788076" priority="3" type="highway.residential" numLanes="1" speed="13.89" disallow="tram rail_urban rail rail_electric rail_fast ship" />
    <edge id="-101600741#0" from="1172966009" to="534718083" priority="3" type="highway.residential" numLanes="1" speed="8.33" disallow="tram rail_urban rail rail_electric rail_fast ship" />
    <edge id="-101600741#1" from="1172985102" to="1172966009" priority="3" type="highway.residential" numLanes="1" speed="8.33" disallow="tram rail_urban rail rail_electric rail_fast ship" />
    <edge id="-101600741#2" from="1172985096" to="1172985102" priority="3" type="highway.residential" numLanes="1" speed="8.33" disallow="tram rail_urban rail rail_electric rail_fast ship" />
    <edge id="-101600741#3" from="1172985047" to="1172985096" priority="3" type="highway.residential" numLanes="1" speed="8.33" disallow="tram rail_urban rail rail_electric rail_fast ship" />
    <edge id="-101600741#4" from="1172966013" to="1172985047" priority="3" type="highway.residential" numLanes="1" speed="8.33" shape="3059.69,2747.72 3055.31,2747.63 3000.65,2746.39" disallow="tram rail_urban rail rail_electric rail_fast ship" />
    <edge id="-101601551" from="1172985096" to="1172985063" priority="3" type="highway.residential" numLanes="1" speed="13.89" shape="2910.67,2743.13 2908.22,2810.43 2907.79,2850.49" disallow="tram rail_urban rail rail_electric rail_fast ship" />
    <edge id="-101601553#0" from="1172985090" to="1172985047" priority="3" type="highway.residential" numLanes="1" speed="8.33" disallow="tram rail_urban rail rail_electric rail_fast ship" />
    <edge id="-101601553#1" from="1162051794" to="1172985090" priority="3" type="highway.residential" numLanes="1" speed="8.33" shape="2939.61,2555.66 2937.31,2667.59 2937.95,2671.52 2940.39,2675.83 2944.99,2679.71 2950.38,2682.80 3000.41,2696.65" disallow="tram rail_urban rail rail_electric rail_fast ship" />
    <edge id="-101601557" from="1172985090" to="1172985104" priority="3" type="highway.residential" numLanes="1" speed="13.89" shape="3000.41,2696.65 3004.56,2694.67 3007.69,2692.07 3009.22,2688.49 3009.76,2678.62" disallow="tram rail_urban rail rail_electric rail_fast ship" />
    <edge id="-101601559" from="534718081" to="1172985101" priority="3" type="highway.residential" numLanes="1" speed="13.89" shape="2627.50,2734.68 2597.24,2729.71 2588.32,2728.46 2514.64,2722.98" disallow="tram rail_urban rail rail_electric rail_fast ship" />
    <edge id="-101601561" from="1172985047" to="1172985093" priority="3" type="highway.residential" numLanes="1" speed="13.89" shape="3000.65,2746.39 2982.62,2781.79 2981.43,2839.20" disallow="tram rail_urban rail rail_electric rail_fast ship" />
    <edge id="-101601563" from="1172966009" to="1172985083" priority="3" type="highway.residential" numLanes="1" speed="8.33" disallow="tram rail_urban rail rail_electric rail_fast ship" />
    <edge id="-101601830" from="1172993700" to="1172993712" priority="3" type="highway.residential" numLanes="1" speed="13.89" shape="2572.08,2360.28 2547.49,2381.99 2545.58,2401.36" disallow="tram rail_urban rail rail_electric rail_fast ship" />
    <edge id="-101601831" from="1172993711" to="1172993763" priority="3" type="highway.residential" numLanes="1" speed="8.33" shape="2688.18,2497.02 2609.50,2487.08 2600.39,2486.62 2590.42,2487.44 2558.92,2492.72 2546.66,2493.28 2531.40,2492.51 2504.04,2488.55 2458.81,2480.10" disallow="tram rail_urban rail rail_electric rail_fast ship" />
    <edge id="-101601832#0" from="7900125515" to="1172993753" priority="3" type="highway.residential" numLanes="1" speed="13.89" shape="2537.03,2357.10 2495.44,2353.32 2490.50,2353.59 2486.77,2355.61 2482.85,2358.03 2479.33,2361.84 2462.26,2386.15" disallow="tram rail_urban rail rail_electric rail_fast ship" />
    <edge id="-101601832#1" from="1172993700" to="7900125515" priority="3" type="highway.residential" numLanes="1" speed="13.89" disallow="tram rail_urban rail rail_electric rail_fast ship" />
    <edge id="-101601832#2" from="1172993756" to="1172993700" priority="3" type="highway.residential" numLanes="1" speed="13.89" shape="2700.10,2405.98 2625.71,2400.44 2620.15,2398.93 2615.55,2395.25 2590.40,2366.01 2585.80,2362.32 2580.24,2361.02 2572.08,2360.28" disallow="tram rail_urban rail rail_electric rail_fast ship" />
    <edge id="-101604496#0" from="1173023737" to="1173023819" priority="3" type="highway.residential" numLanes="1" speed="13.89" shape="2793.67,2497.35 2798.86,2458.20 2803.66,2419.08" disallow="tram rail_urban rail rail_electric rail_fast ship" />
    <edge id="-101604496#1" from="1162051803" to="1173023737" priority="3" type="highway.residential" numLanes="1" speed="13.89" shape="2756.48,2547.97 2789.11,2511.42 2791.63,2507.24 2793.67,2497.35" disallow="tram rail_urban rail rail_electric rail_fast ship" />
    <edge id="-101604497" from="1173023819" to="1173023825" priority="3" type="highway.residential" numLanes="1" speed="13.89" disallow="tram rail_urban rail rail_electric rail_fast ship" />
    <edge id="-101604499" from="1173023823" to="1161512966" priority="3" type="highway.residential" numLanes="1" speed="13.89" shape="2798.08,2253.19 2771.26,2236.51 2753.40,2231.57 2747.32,2229.68 2745.14,2228.77" disallow="tram rail_urban rail rail_electric rail_fast ship" />
    <edge id="-101604502" from="1173023737" to="1173023772" priority="3" type="highway.residential" numLanes="1" speed="13.89" shape="2793.67,2497.35 2830.54,2501.96 2836.07,2501.09 2850.57,2490.43 2853.86,2485.06 2858.72,2450.85" disallow="tram rail_urban rail rail_electric rail_fast ship" />
    <edge id="-101604503" from="1173023796" to="1173023822" priority="3" type="highway.residential" numLanes="1" speed="13.89" disallow="tram rail_urban rail rail_electric rail_fast ship" />
    <edge id="-101604508" from="1173023823" to="1173023769" priority="3" type="highway.residential" numLanes="1" speed="13.89" shape="2798.08,2253.19 2793.06,2262.72 2783.29,2281.34 2779.25,2296.79 2778.39,2307.83 2778.55,2318.08 2779.61,2329.02 2782.57,2334.17 2789.28,2338.17 2808.84,2344.02 2852.79,2362.13" disallow="tram rail_urban rail rail_electric rail_fast ship" />
    <edge id="-101604511" from="1173023772" to="1173023845" priority="3" type="highway.residential" numLanes="1" speed="13.89" disallow="tram rail_urban rail rail_electric rail_fast ship" />
    <edge id="-101604513#0" from="1173023796" to="1173023842" priority="3" type="highway.residential" numLanes="1" speed="13.89" disallow="tram rail_urban rail rail_electric rail_fast ship" />
    <edge id="-101604513#1" from="1173023849" to="1173023796" priority="3" type="highway.residential" numLanes="1" speed="13.89" disallow="tram rail_urban rail rail_electric rail_fast ship" />
    <edge id="-101604518" from="1173023772" to="1173023750" priority="3" type="highway.residential" numLanes="1" speed="13.89" disallow="tram rail_urban rail rail_electric rail_fast ship" />
    <edge id="-101604521" from="1173023875" to="854696199" priority="3" type="highway.residential" numLanes="1" speed="13.89" shape="2702.16,2248.24 2641.79,2276.11 2628.60,2280.64 2617.66,2283.85 2602.66,2287.01 2588.85,2289.39 2529.27,2287.79" disallow="tram rail_urban rail rail_electric rail_fast ship" />
    <edge id="-101605219" from="1173027844" to="1173027927" priority="3" type="highway.residential" numLanes="1" speed="13.89" shape="2635.80,2163.65 2601.18,2229.92 2598.08,2235.09 2591.63,2241.29 2584.17,2245.16 2572.51,2246.11 2562.39,2244.47 2554.03,2241.03 2547.22,2234.82 2544.10,2224.00 2543.92,2210.78 2541.79,2200.36 2536.70,2190.17 2529.86,2181.98 2525.05,2177.50 2517.87,2173.47 2499.58,2167.21 2489.42,2162.81 2481.83,2157.39 2475.20,2149.99 2470.72,2141.37 2467.82,2132.33 2466.72,2124.46 2466.80,2115.38 2469.24,2106.07 2473.30,2099.11 2478.35,2092.33 2497.90,2071.75" disallow="tram rail_urban rail rail_electric rail_fast ship" />
    <edge id="-101605947#0" from="1173043032" to="1173042983" priority="3" type="highway.residential" numLanes="1" speed="13.89" shape="2345.32,2317.58 2334.06,2349.88 2334.30,2362.58" disallow="tram rail_urban rail rail_electric rail_fast ship" />
    <edge id="-101605947#1" from="4171701403" to="1173043032" priority="3" type="highway.residential" numLanes="1" speed="13.89" shape="2378.97,2230.24 2359.66,2279.75 2345.32,2317.58" disallow="tram rail_urban rail rail_electric rail_fast ship" />
    <edge id="-101605947#2" from="1173043020" to="4171701403" priority="3" type="highway.residential" numLanes="1" speed="13.89" disallow="tram rail_urban rail rail_electric rail_fast ship" />
    <edge id="-101605948" from="1173043021" to="1173042905" priority="3" type="highway.residential" numLanes="1" speed="13.89" shape="2236.39,2030.73 2290.71,2061.21 2311.43,2071.37 2325.56,2076.70 2336.87,2079.31 2354.13,2082.23" disallow="tram rail_urban rail rail_electric rail_fast ship" />
    <edge id="-101605949" from="1173043032" to="1173043012" priority="3" type="highway.residential" numLanes="1" speed="13.89" disallow="tram rail_urban rail rail_electric rail_fast ship" />
    <edge id="-101605950" from="1173042988" to="1173042914" priority="3" type="highway.residential" numLanes="1" speed="13.89" disallow="tram rail_urban rail rail_electric rail_fast ship" />
    <edge id="-101605951#0" from="1173043021" to="1161680870" priority="3" type="highway.residential" numLanes="1" speed="13.89" shape="2236.39,2030.73 2237.80,2027.42 2263.24,1964.55" disallow="tram rail_urban rail rail_electric rail_fast ship" />
    <edge id="-101605951#1" from="1173042949" to="1173043021" priority="3" type="highway.residential" numLanes="1" speed="13.89" shape="2218.78,2096.35 2219.05,2088.25 2220.31,2078.96 2222.37,2070.25 2224.81,2060.56 2229.66,2046.58 2236.39,2030.73" disallow="tram rail_urban rail rail_electric rail_fast ship" />
    <edge id="-101605951#2" from="1173042988" to="1173042949" priority="3" type="highway.residential" numLanes="1" speed="13.89" shape="2221.83,2119.91 2220.64,2117.04 2219.33,2107.98 2218.78,2096.35" disallow="tram rail_urban rail rail_electric rail_fast ship" />
    <edge id="-101605951#3" from="1173043020" to="1173042988" priority="3" type="highway.residential" numLanes="1" speed="13.89" shape="2388.88,2204.81 2361.02,2193.01 2312.65,2172.97 2271.64,2155.00 2257.88,2147.69 2237.73,2135.74 2229.34,2130.33 2224.13,2125.48 2221.83,2119.91" disallow="tram rail_urban rail rail_electric rail_fast ship" />
    <edge id="-101605951#4" from="1353867616" to="1173043020" priority="3" type="highway.residential" numLanes="1" speed="13.89" disallow="tram rail_urban rail rail_electric rail_fast ship" />
    <edge id="-101605951#5" from="1173043030" to="1353867616" priority="3" type="highway.residential" numLanes="1" speed="13.89" shape="2442.15,2263.31 2441.84,2241.22 2438.77,2233.96 2434.13,2228.49 2421.77,2221.18 2391.53,2205.96" disallow="tram rail_urban rail rail_electric rail_fast ship" />
    <edge id="-101606546" from="1173042949" to="1173049317" priority="3" type="highway.residential" numLanes="1" speed="13.89" shape="2218.78,2096.35 2203.48,2092.42 2193.89,2085.65 2181.47,2075.17 2164.65,2060.80 2152.86,2052.68 2139.73,2045.76" disallow="tram rail_urban rail rail_electric rail_fast ship" />
    <edge id="-101606547#0" from="1173049317" to="1173049311" priority="3" type="highway.residential" numLanes="1" speed="13.89" shape="2139.73,2045.76 2146.54,2039.75 2155.10,2029.17 2161.29,2019.22 2164.54,2010.88 2165.59,2001.20 2164.49,1992.93 2161.22,1985.68 2156.78,1979.43 2149.57,1973.41 2135.63,1966.50 2125.98,1955.68" disallow="tram rail_urban rail rail_electric rail_fast ship" />
    <edge id="-101606547#1" from="1173049296" to="1173049317" priority="3" type="highway.residential" numLanes="1" speed="13.89" disallow="tram rail_urban rail rail_electric rail_fast ship" />
    <edge id="-101606547#2" from="1173049308" to="1173049296" priority="3" type="highway.residential" numLanes="1" speed="13.89" shape="2085.38,2116.37 2096.44,2093.52 2105.75,2079.98 2117.23,2065.81 2131.10,2053.38 2135.93,2049.11" disallow="tram rail_urban rail rail_electric rail_fast ship" />
    <edge id="-101606549" from="1173049296" to="1173049282" priority="3" type="highway.residential" numLanes="1" speed="13.89" disallow="tram rail_urban rail rail_electric rail_fast ship" />
    <edge id="-101607098#0" from="1173060679" to="1173060722" priority="3" type="highway.residential" numLanes="1" speed="8.33" shape="3318.71,2578.06 3300.24,2570.63 3222.96,2533.82" disallow="tram rail_urban rail rail_electric rail_fast ship" />
    <edge id="-101607098#1" from="5518678795" to="1173060679" priority="3" type="highway.residential" numLanes="1" speed="8.33" shape="3378.34,2600.46 3337.25,2585.51 3318.71,2578.06" disallow="tram rail_urban rail rail_electric rail_fast ship" />
    <edge id="-101607098#2" from="1173060728" to="5518678795" priority="3" type="highway.residential" numLanes="1" speed="8.33" disallow="tram rail_urban rail rail_electric rail_fast ship" />
    <edge id="-101607101" from="1173060750" to="1173060688" priority="3" type="highway.residential" numLanes="1" speed="8.33" shape="3164.79,2605.46 3176.47,2606.27 3184.19,2606.37 3189.92,2605.70 3196.03,2604.23 3201.14,2601.60 3211.17,2596.52" disallow="tram rail_urban rail rail_electric rail_fast ship" />
    <edge id="-101607965" from="1173060728" to="1173080084" priority="3" type="highway.residential" numLanes="1" speed="8.33" shape="3429.23,2618.99 3421.45,2634.58 3413.67,2650.16" disallow="tram rail_urban rail rail_electric rail_fast ship" />
    <edge id="-101607966#0" from="1173080036" to="1173079957" priority="3" type="highway.residential" numLanes="1" speed="13.89" shape="3221.46,2737.97 3203.87,2742.03 3178.24,2748.50 3158.72,2753.10 3148.25,2754.63 3120.58,2757.19 3114.33,2755.62 3110.06,2752.30 3107.07,2748.85 3105.14,2744.66 3104.34,2740.48 3104.28,2736.69 3114.55,2690.59" disallow="tram rail_urban rail rail_electric rail_fast ship" />
    <edge id="-101607966#1" from="1173080042" to="1173080036" priority="3" type="highway.residential" numLanes="1" speed="13.89" shape="3300.39,2719.00 3282.03,2727.53 3268.41,2730.29 3237.01,2734.86 3221.46,2737.97" disallow="tram rail_urban rail rail_electric rail_fast ship" />
    <edge id="-101607967#0" from="1173100644" to="1173080080" priority="3" type="highway.residential" numLanes="1" speed="8.33" disallow="tram rail_urban rail rail_electric rail_fast ship" />