<?xml version="1.0" encoding="UTF-8"?>

<!-- generated on 2025-04-07 23:33:45 by Eclipse SUMO netconvert Version 1.19.0
<configuration xmlns:xsi="http://www.w3.org/2001/XMLSchema-instance" xsi:noNamespaceSchemaLocation="http://sumo.dlr.de/xsd/netconvertConfiguration.xsd">

    <input>
        <sumo-net-file value="provins/provins.net.xml"/>
    </input>

    <output>
        <plain-output-prefix value="provins/provins"/>
    </output>

    <processing>
        <geometry.min-radius.fix.railways value="false"/>
        <geometry.max-grade.fix value="false"/>
        <offset.disable-normalization value="true"/>
        <lefthand value="0"/>
    </processing>

    <tls_building>
        <tls.ignore-internal-junction-jam value="1"/>
    </tls_building>

    <junctions>
        <no-turnarounds value="true"/>
        <junctions.corner-detail value="5"/>
        <junctions.limit-turn-speed value="5.50"/>
        <rectangular-lane-cut value="0"/>
    </junctions>

    <pedestrian>
        <walkingareas value="0"/>
    </pedestrian>

</configuration>
-->

<tlLogics version="1.16" xmlns:xsi="http://www.w3.org/2001/XMLSchema-instance" xsi:noNamespaceSchemaLocation="http://sumo.dlr.de/xsd/tllogic_file.xsd">
    <tlLogic id="423348297" type="static" programID="0" offset="0">
        <phase duration="25" state="rGr"/>
        <phase duration="5"  state="ryr"/>
        <phase duration="25" state="rrG"/>
        <phase duration="5"  state="rry"/>
        <phase duration="25" state="Grr"/>
        <phase duration="5"  state="yrr"/>
    </tlLogic>
    <tlLogic id="423348300" type="static" programID="0" offset="0">
        <phase duration="42" state="GGGrrr"/>
        <phase duration="3"  state="yyyrrr"/>
        <phase duration="42" state="rrrGGG"/>
        <phase duration="3"  state="rrryyy"/>
    </tlLogic>
    <tlLogic id="423353686" type="static" programID="0" offset="0">
        <phase duration="40" state="GggrrrGGg"/>
        <phase duration="5"  state="yyyrrryyy"/>
        <phase duration="40" state="rrrGGgGrr"/>
        <phase duration="5"  state="rrryyyyrr"/>
    </tlLogic>
    <tlLogic id="429655333" type="static" programID="0" offset="0">
        <phase duration="38" state="rrrGGgGgg"/>
        <phase duration="3"  state="rrryyyygg"/>
        <phase duration="6"  state="rrrrrrGGG"/>
        <phase duration="3"  state="rrrrrryyy"/>
        <phase duration="37" state="GGgGrrrrr"/>
        <phase duration="3"  state="yyyyrrrrr"/>
    </tlLogic>

    <connection from="-36289599#0" to="-157553237#1" fromLane="0" toLane="0" tl="423353686" linkIndex="6"/>
    <connection from="-36289599#0" to="-319058608#1" fromLane="0" toLane="0" tl="423353686" linkIndex="7"/>
    <connection from="-36289599#0" to="36289599#0" fromLane="0" toLane="0" tl="423353686" linkIndex="8"/>
    <connection from="-36950447#1" to="-36950447#0" fromLane="0" toLane="0" tl="429654068" linkIndex="0"/>
    <connection from="-36950657#0" to="-1339510610" fromLane="0" toLane="0" tl="429655333" linkIndex="0"/>
    <connection from="-36950657#0" to="-269702562" fromLane="0" toLane="0" tl="429655333" linkIndex="1"/>
    <connection from="-36950657#0" to="36950657#0" fromLane="0" toLane="0" tl="429655333" linkIndex="2"/>
    <connection from="1039616963#0" to="1039616963#1" fromLane="0" toLane="0" tl="4167516045" linkIndex="-1"/>
    <connection from="1339510609#1" to="36950657#0" fromLane="0" toLane="0" tl="429655333" linkIndex="3"/>
    <connection from="1339510609#1" to="-1339510610" fromLane="0" toLane="0" tl="429655333" linkIndex="4"/>
    <connection from="1339510609#1" to="-269702562" fromLane="0" toLane="0" tl="429655333" linkIndex="5"/>
    <connection from="1339510610" to="-269702562" fromLane="0" toLane="0" tl="429655333" linkIndex="6"/>
    <connection from="1339510610" to="36950657#0" fromLane="1" toLane="0" tl="429655333" linkIndex="7"/>
    <connection from="1339510610" to="-1339510610" fromLane="1" toLane="0" tl="429655333" linkIndex="8"/>
    <connection from="1339510612#2" to="36936373#0" fromLane="0" toLane="0" tl="423348300" linkIndex="3"/>
    <connection from="1339510612#2" to="36289159#0" fromLane="0" toLane="0" tl="423348300" linkIndex="4"/>
    <connection from="1339510612#2" to="-36288941#2" fromLane="1" toLane="0" tl="423348300" linkIndex="5"/>
    <connection from="153730936#3" to="201772610" fromLane="0" toLane="0" tl="423348297" linkIndex="0"/>
    <connection from="157553237#1" to="-319058608#1" fromLane="0" toLane="0" tl="423353686" linkIndex="3"/>
    <connection from="157553237#1" to="36289599#0" fromLane="0" toLane="0" tl="423353686" linkIndex="4"/>
    <connection from="157553237#1" to="-157553237#1" fromLane="0" toLane="0" tl="423353686" linkIndex="5"/>
    <connection from="191966093#0" to="191966093#1" fromLane="0" toLane="0" tl="2510773389" linkIndex="-1"/>
    <connection from="191966093#1" to="191966093#2" fromLane="0" toLane="0" tl="2025263795" linkIndex="-1"/>
    <connection from="191966108#0" to="191966108#1" fromLane="0" toLane="0" tl="2025263686" linkIndex="-1"/>
    <connection from="191966111#0" to="191966111#1" fromLane="0" toLane="0" tl="2025263622" linkIndex="-1"/>
    <connection from="191966134#0" to="191966134#1" fromLane="0" toLane="0" tl="2510773433" linkIndex="-1"/>
    <connection from="191966134#1" to="191966134#2" fromLane="0" toLane="0" tl="2025263750" linkIndex="-1"/>
    <connection from="191966144#0" to="191966144#1" fromLane="0" toLane="0" tl="2025263790" linkIndex="-1"/>
    <connection from="191966144#1" to="191966144#2" fromLane="0" toLane="0" tl="2510773344" linkIndex="-1"/>
    <connection from="191966154#0" to="191966154#1" fromLane="0" toLane="0" tl="2025263632" linkIndex="-1"/>
    <connection from="269702544" to="201772610" fromLane="0" toLane="0" tl="423348297" linkIndex="1"/>
    <connection from="319058608#1" to="36289599#0" fromLane="0" toLane="0" tl="423353686" linkIndex="0"/>
    <connection from="319058608#1" to="-157553237#1" fromLane="0" toLane="0" tl="423353686" linkIndex="1"/>
    <connection from="319058608#1" to="-319058608#1" fromLane="0" toLane="0" tl="423353686" linkIndex="2"/>
    <connection from="36288941#2" to="36936373#0" fromLane="0" toLane="0" tl="423348300" linkIndex="0"/>
    <connection from="36288941#2" to="36289159#0" fromLane="0" toLane="0" tl="423348300" linkIndex="1"/>
    <connection from="36288941#2" to="-36288941#2" fromLane="0" toLane="0" tl="423348300" linkIndex="2"/>
    <connection from="36936373#4" to="201772610" fromLane="0" toLane="0" tl="423348297" linkIndex="2"/>
    <connection from="36950447#0" to="36950447#1" fromLane="0" toLane="0" tl="429654068" linkIndex="1"/>
    <connection from="394443143#0" to="394443143#1" fromLane="0" toLane="0" tl="4983153140" linkIndex="0"/>
    <connection from="39820658#0" to="39820658#1" fromLane="0" toLane="0" tl="4980006031" linkIndex="0"/>
    <connection from="497902033#0" to="497902033#1" fromLane="0" toLane="0" tl="2025263760" linkIndex="-1"/>
    <connection from="497902033#1" to="497902033#2" fromLane="0" toLane="0" tl="2510773410" linkIndex="-1"/>
    <connection from="508751757#1" to="508751757#2" fromLane="0" toLane="0" tl="2025263902" linkIndex="0"/>
    <connection from="508751760#0" to="508751760#1" fromLane="0" toLane="0" tl="2025263902" linkIndex="-1"/>
    <connection from="508751760#1" to="508751760#2" fromLane="0" toLane="0" tl="4980006031" linkIndex="-1"/>
    <connection from="508751760#2" to="508751760#5" fromLane="0" toLane="0" tl="429654068" linkIndex="-1"/>
    <connection from="509033674#0" to="509033674#1" fromLane="0" toLane="0" tl="2025263382" linkIndex="0"/>
    <connection from="866326468#0" to="866326468#1" fromLane="0" toLane="0" tl="2025263893" linkIndex="-1"/>
    <connection from="970418595#1" to="970418595#2" fromLane="0" toLane="0" tl="4983153140" linkIndex="-1"/>
    <connection from="970418595#2" to="970418595#3" fromLane="0" toLane="0" tl="2025263382" linkIndex="-1"/>
</tlLogics>
