<?xml version="1.0" encoding="UTF-8"?>

<!-- generated on 2025-04-07 23:33:45 by Eclipse SUMO netconvert Version 1.19.0
<configuration xmlns:xsi="http://www.w3.org/2001/XMLSchema-instance" xsi:noNamespaceSchemaLocation="http://sumo.dlr.de/xsd/netconvertConfiguration.xsd">

    <input>
        <sumo-net-file value="provins/provins.net.xml"/>
    </input>

    <output>
        <plain-output-prefix value="provins/provins"/>
    </output>

    <processing>
        <geometry.min-radius.fix.railways value="false"/>
        <geometry.max-grade.fix value="false"/>
        <offset.disable-normalization value="true"/>
        <lefthand value="0"/>
    </processing>

    <tls_building>
        <tls.ignore-internal-junction-jam value="1"/>
    </tls_building>

    <junctions>
        <no-turnarounds value="true"/>
        <junctions.corner-detail value="5"/>
        <junctions.limit-turn-speed value="5.50"/>
        <rectangular-lane-cut value="0"/>
    </junctions>

    <pedestrian>
        <walkingareas value="0"/>
    </pedestrian>

</configuration>
-->

<connections version="1.16" xmlns:xsi="http://www.w3.org/2001/XMLSchema-instance" xsi:noNamespaceSchemaLocation="http://sumo.dlr.de/xsd/connections_file.xsd">
    <connection from="-1002402283" to="-610135143#1" fromLane="0" toLane="0"/>
    <connection from="-1002402283" to="610135143#2" fromLane="0" toLane="0"/>
    <connection from="-1002402283" to="1002402283" fromLane="0" toLane="0"/>

    <connection from="-1023728248" to="-551641024#0" fromLane="0" toLane="0"/>
    <connection from="-1023728248" to="551641024#1" fromLane="0" toLane="0"/>
    <connection from="-1023728248" to="1023728248" fromLane="0" toLane="0"/>

    <connection from="-1024000539#0" to="319058602#1" fromLane="0" toLane="0"/>
    <connection from="-1024000539#0" to="-319058602#0" fromLane="0" toLane="0"/>
    <connection from="-1024000539#0" to="1024000539#0" fromLane="0" toLane="0"/>

    <connection from="-1024000539#1" to="-156460680#0" fromLane="0" toLane="0"/>
    <connection from="-1024000539#1" to="-1024000539#0" fromLane="0" toLane="0"/>
    <connection from="-1024000539#1" to="156460680#1" fromLane="0" toLane="0"/>
    <connection from="-1024000539#1" to="1024000539#1" fromLane="0" toLane="0"/>

    <connection from="-1024000539#2" to="-1024000539#1" fromLane="0" toLane="0"/>
    <connection from="-1024000539#2" to="-327343104#4" fromLane="0" toLane="0"/>

    <connection from="-1024000539#3" to="156460679" fromLane="0" toLane="0"/>
    <connection from="-1024000539#3" to="-1024000539#2" fromLane="0" toLane="0"/>
    <connection from="-1024000539#3" to="-37049908" fromLane="0" toLane="0"/>
    <connection from="-1024000539#3" to="1024000539#3" fromLane="0" toLane="0"/>

    <connection from="-1024000543" to="676326325#1" fromLane="0" toLane="0"/>
    <connection from="-1024000543" to="-676326325#0" fromLane="0" toLane="0"/>
    <connection from="-1024000543" to="1024000543" fromLane="0" toLane="0"/>

    <connection from="-1024000544" to="339717959#1" fromLane="0" toLane="0"/>
    <connection from="-1024000544" to="-339717959#0" fromLane="0" toLane="0"/>
    <connection from="-1024000544" to="1024000544" fromLane="0" toLane="0"/>

    <connection from="-1024000546" to="319058645#1" fromLane="0" toLane="0"/>
    <connection from="-1024000546" to="-319058645#0" fromLane="0" toLane="0"/>
    <connection from="-1024000546" to="1024000546" fromLane="0" toLane="0"/>

    <connection from="-1024000548" to="-551625831#1" fromLane="0" toLane="0"/>
    <connection from="-1024000548" to="-36292830#1" fromLane="0" toLane="0"/>
    <connection from="-1024000548" to="36292830#2" fromLane="0" toLane="0"/>

    <connection from="-1024000560" to="-36293459#7" fromLane="0" toLane="0"/>
    <connection from="-1024000560" to="36293459#8" fromLane="0" toLane="0"/>
    <connection from="-1024000560" to="1024000560" fromLane="0" toLane="0"/>

    <connection from="-1024000561" to="1024000563#4" fromLane="0" toLane="0"/>
    <connection from="-1024000561" to="1024000561" fromLane="0" toLane="0"/>

    <connection from="-1024000562" to="1024000563#2" fromLane="0" toLane="0"/>
    <connection from="-1024000562" to="1024000562" fromLane="0" toLane="0"/>

    <connection from="-1024000564#0" to="1024000565#1" fromLane="0" toLane="0"/>
    <connection from="-1024000564#0" to="1024000564#0" fromLane="0" toLane="0"/>

    <connection from="-1024000564#1" to="-1024000564#0" fromLane="0" toLane="0"/>
    <connection from="-1024000564#1" to="1024000563#0" fromLane="0" toLane="0"/>
    <connection from="-1024000564#1" to="1024000564#1" fromLane="0" toLane="0"/>

    <connection from="-1024000567" to="36293752#7" fromLane="0" toLane="0"/>
    <connection from="-1024000567" to="-36293752#6" fromLane="0" toLane="0"/>
    <connection from="-1024000567" to="1024000567" fromLane="0" toLane="0"/>

    <connection from="-1024000569" to="-476687231#1" fromLane="0" toLane="0"/>
    <connection from="-1024000569" to="476687231#2" fromLane="0" toLane="0"/>
    <connection from="-1024000569" to="1024000569" fromLane="0" toLane="0"/>

    <connection from="-1025279530" to="1025279530" fromLane="0" toLane="0"/>

    <connection from="-1030298899#0" to="1030298904" fromLane="0" toLane="0"/>
    <connection from="-1030298899#0" to="-1030298905#1" fromLane="0" toLane="0"/>
    <connection from="-1030298899#0" to="1030298905#2" fromLane="0" toLane="0"/>

    <connection from="-1030298899#1" to="-1030298899#0" fromLane="0" toLane="0"/>
    <connection from="-1030298899#1" to="1030298900" fromLane="0" toLane="0"/>
    <connection from="-1030298899#1" to="1030298899#1" fromLane="0" toLane="0"/>

    <connection from="-1030298900" to="1030298899#1" fromLane="0" toLane="0"/>
    <connection from="-1030298900" to="-1030298899#0" fromLane="0" toLane="0"/>
    <connection from="-1030298900" to="1030298900" fromLane="0" toLane="0"/>

    <connection from="-1030298901" to="-1030298905#1" fromLane="0" toLane="0"/>
    <connection from="-1030298901" to="1030298905#2" fromLane="0" toLane="0"/>
    <connection from="-1030298901" to="1030298904" fromLane="0" toLane="0"/>

    <connection from="-1030298902" to="-1030298907" fromLane="0" toLane="0"/>
    <connection from="-1030298902" to="1030298906" fromLane="0" toLane="0"/>
    <connection from="-1030298902" to="1030298902" fromLane="0" toLane="0"/>

    <connection from="-1030298903" to="1030298902" fromLane="0" toLane="0"/>
    <connection from="-1030298903" to="-1030298907" fromLane="0" toLane="0"/>
    <connection from="-1030298903" to="1030298906" fromLane="0" toLane="0"/>

    <connection from="-1030298905#0" to="-610220874#0" fromLane="0" toLane="0"/>
    <connection from="-1030298905#0" to="610220874#1" fromLane="0" toLane="0"/>
    <connection from="-1030298905#0" to="1030298905#0" fromLane="0" toLane="0"/>

    <connection from="-1030298905#1" to="-1030298905#0" fromLane="0" toLane="0"/>
    <connection from="-1030298905#1" to="1030298907" fromLane="0" toLane="0"/>
    <connection from="-1030298905#1" to="1030298905#1" fromLane="0" toLane="0"/>

    <connection from="-1030298907" to="1030298905#1" fromLane="0" toLane="0"/>
    <connection from="-1030298907" to="-1030298905#0" fromLane="0" toLane="0"/>
    <connection from="-1030298907" to="1030298907" fromLane="0" toLane="0"/>

    <connection from="-1042625787" to="1042625786" fromLane="0" toLane="0"/>
    <connection from="-1042625787" to="1042625787" fromLane="0" toLane="0"/>

    <connection from="-1057740844" to="-37640679#1" fromLane="0" toLane="0"/>
    <connection from="-1057740844" to="37640679#2" fromLane="0" toLane="0"/>
    <connection from="-1057740844" to="1057740844" fromLane="0" toLane="0"/>

    <connection from="-1057740845" to="-37640679#0" fromLane="0" toLane="0"/>
    <connection from="-1057740845" to="37640679#1" fromLane="0" toLane="0"/>
    <connection from="-1057740845" to="1057740845" fromLane="0" toLane="0"/>

    <connection from="-1057740846" to="-394446870#0" fromLane="0" toLane="0"/>
    <connection from="-1057740846" to="394446870#1" fromLane="0" toLane="0"/>
    <connection from="-1057740846" to="1057740846" fromLane="0" toLane="0"/>

    <connection from="-1057740847" to="36294383#4" fromLane="0" toLane="0"/>
    <connection from="-1057740847" to="-36294383#3" fromLane="0" toLane="0"/>
    <connection from="-1057740847" to="1057740847" fromLane="0" toLane="0"/>

    <connection from="-1057740848" to="36294383#3" fromLane="0" toLane="0"/>
    <connection from="-1057740848" to="-36294383#2" fromLane="0" toLane="0"/>
    <connection from="-1057740848" to="1057740848" fromLane="0" toLane="0"/>

    <connection from="-1057740849" to="-37055902#1" fromLane="0" toLane="0"/>
    <connection from="-1057740849" to="37055902#2" fromLane="0" toLane="0"/>
    <connection from="-1057740849" to="1057740849" fromLane="0" toLane="0"/>

    <connection from="-1057740852" to="1057740853#1" fromLane="0" toLane="0"/>
    <connection from="-1057740852" to="-1057740853#0" fromLane="0" toLane="0"/>
    <connection from="-1057740852" to="1057740852" fromLane="0" toLane="0"/>

    <connection from="-1057740853#0" to="1057740854#1" fromLane="0" toLane="0"/>
    <connection from="-1057740853#0" to="-1057740854#0" fromLane="0" toLane="0"/>
    <connection from="-1057740853#0" to="1057740853#0" fromLane="0" toLane="0"/>

    <connection from="-1057740853#1" to="-1057740853#0" fromLane="0" toLane="0"/>
    <connection from="-1057740853#1" to="1057740852" fromLane="0" toLane="0"/>
    <connection from="-1057740853#1" to="1057740853#1" fromLane="0" toLane="0"/>

    <connection from="-1057740854#0" to="319058589#2" fromLane="0" toLane="0"/>
    <connection from="-1057740854#0" to="-319058589#1" fromLane="0" toLane="0"/>
    <connection from="-1057740854#0" to="1057740854#0" fromLane="0" toLane="0"/>

    <connection from="-1057740854#1" to="-1057740854#0" fromLane="0" toLane="0"/>
    <connection from="-1057740854#1" to="1057740853#0" fromLane="0" toLane="0"/>
    <connection from="-1057740854#1" to="1057740854#1" fromLane="0" toLane="0"/>

    <connection from="-1057740854#2" to="-1057740854#1" fromLane="0" toLane="0"/>
    <connection from="-1057740854#2" to="-1057740853#1" fromLane="0" toLane="0"/>
    <connection from="-1057740854#2" to="1057740854#2" fromLane="0" toLane="0"/>

    <connection from="-1057740855" to="-319058589#2" fromLane="0" toLane="0"/>
    <connection from="-1057740855" to="319058589#3" fromLane="0" toLane="0"/>
    <connection from="-1057740855" to="1057740855" fromLane="0" toLane="0"/>

    <connection from="-1057740856" to="-394456356#0" fromLane="0" toLane="0"/>
    <connection from="-1057740856" to="394456356#1" fromLane="0" toLane="0"/>
    <connection from="-1057740856" to="1057740856" fromLane="0" toLane="0"/>

    <connection from="-1057740862#0" to="36950518#2" fromLane="0" toLane="0"/>
    <connection from="-1057740862#0" to="-36950518#1" fromLane="0" toLane="0"/>
    <connection from="-1057740862#0" to="1057740858" fromLane="0" toLane="0"/>

    <connection from="-1057740862#1" to="-1057740862#2" fromLane="0" toLane="0"/>
    <connection from="-1057740862#1" to="-1057740862#0" fromLane="0" toLane="0"/>
    <connection from="-1057740862#1" to="1057740862#1" fromLane="0" toLane="0"/>

    <connection from="-1057740862#2" to="-1057740862#1" fromLane="0" toLane="0"/>

    <connection from="-1057740867" to="-1057740870#0" fromLane="0" toLane="0"/>
    <connection from="-1057740867" to="1057740870#1" fromLane="0" toLane="0"/>
    <connection from="-1057740867" to="1057740867" fromLane="0" toLane="0"/>

    <connection from="-1057740868" to="1057740869#1" fromLane="0" toLane="0"/>
    <connection from="-1057740868" to="-1057740869#0" fromLane="0" toLane="0"/>
    <connection from="-1057740868" to="1057740868" fromLane="0" toLane="0"/>

    <connection from="-1057740869#0" to="-1057740870#1" fromLane="0" toLane="0"/>
    <connection from="-1057740869#0" to="1057740870#2" fromLane="0" toLane="0"/>
    <connection from="-1057740869#0" to="1057740869#0" fromLane="0" toLane="0"/>

    <connection from="-1057740869#1" to="-1057740869#0" fromLane="0" toLane="0"/>
    <connection from="-1057740869#1" to="1057740868" fromLane="0" toLane="0"/>
    <connection from="-1057740869#1" to="1057740869#1" fromLane="0" toLane="0"/>

    <connection from="-1057740870#0" to="36950506#3" fromLane="0" toLane="0"/>
    <connection from="-1057740870#0" to="-36950506#2" fromLane="0" toLane="0"/>
    <connection from="-1057740870#0" to="1057740865" fromLane="0" toLane="0"/>

    <connection from="-1057740870#1" to="1057740867" fromLane="0" toLane="0"/>
    <connection from="-1057740870#1" to="-1057740870#0" fromLane="0" toLane="0"/>
    <connection from="-1057740870#1" to="1057740870#1" fromLane="0" toLane="0"/>

    <connection from="-1057740870#2" to="1057740869#0" fromLane="0" toLane="0"/>
    <connection from="-1057740870#2" to="-1057740870#1" fromLane="0" toLane="0"/>
    <connection from="-1057740870#2" to="1057740870#2" fromLane="0" toLane="0"/>

    <connection from="-1057740872" to="35802071#2" fromLane="0" toLane="0"/>
    <connection from="-1057740872" to="-35802071#1" fromLane="0" toLane="0"/>
    <connection from="-1057740872" to="1057740872" fromLane="0" toLane="0"/>

    <connection from="-1057740873" to="-1057740872" fromLane="0" toLane="0"/>
    <connection from="-1057740873" to="1057740874" fromLane="0" toLane="0"/>
    <connection from="-1057740873" to="1057740873" fromLane="0" toLane="0"/>

    <connection from="-1057740875" to="36933126#2" fromLane="0" toLane="0"/>
    <connection from="-1057740875" to="-36933126#1" fromLane="0" toLane="0"/>
    <connection from="-1057740875" to="1057740875" fromLane="0" toLane="0"/>

    <connection from="-1057740876" to="648178452#2" fromLane="0" toLane="0"/>
    <connection from="-1057740876" to="-648178452#1" fromLane="0" toLane="0"/>
    <connection from="-1057740876" to="1057740876" fromLane="0" toLane="0"/>

    <connection from="-1057740877#0" to="-1057740879" fromLane="0" toLane="0"/>

    <connection from="-1057740877#1" to="-1057740877#0" fromLane="0" toLane="0"/>
    <connection from="-1057740877#1" to="-1109772714" fromLane="0" toLane="0"/>

    <connection from="-1057740877#2" to="-1057740877#1" fromLane="0" toLane="0"/>
    <connection from="-1057740877#2" to="1109772713" fromLane="0" toLane="0"/>

    <connection from="-1057740879" to="-1057740880#0" fromLane="0" toLane="0"/>
    <connection from="-1057740879" to="1057740880#1" fromLane="0" toLane="0"/>
    <connection from="-1057740879" to="1057740879" fromLane="0" toLane="0"/>

    <connection from="-1057740880#0" to="1057740881" fromLane="0" toLane="0"/>
    <connection from="-1057740880#0" to="1057740880#0" fromLane="0" toLane="0"/>

    <connection from="-1057740880#1" to="1057740879" fromLane="0" toLane="0"/>
    <connection from="-1057740880#1" to="-1057740880#0" fromLane="0" toLane="0"/>
    <connection from="-1057740880#1" to="1057740880#1" fromLane="0" toLane="0"/>

    <connection from="-106219259" to="106219259" fromLane="0" toLane="0"/>

    <connection from="-106219260#0" to="394456408#0" fromLane="0" toLane="0"/>
    <connection from="-106219260#0" to="-106219259" fromLane="0" toLane="0"/>
    <connection from="-106219260#0" to="106219260#0" fromLane="0" toLane="0"/>

    <connection from="-106219260#1" to="-106219260#0" fromLane="0" toLane="0"/>
    <connection from="-106219260#1" to="-238843374" fromLane="0" toLane="0"/>
    <connection from="-106219260#1" to="106219260#1" fromLane="0" toLane="0"/>

    <connection from="-1066214627" to="1066214628#2" fromLane="0" toLane="0"/>
    <connection from="-1066214627" to="-1066214628#1" fromLane="0" toLane="0"/>
    <connection from="-1066214627" to="1066214627" fromLane="0" toLane="0"/>

    <connection from="-1066214628#0" to="1066214628#0" fromLane="0" toLane="0"/>

    <connection from="-1066214628#1" to="1066214626" fromLane="0" toLane="0"/>
    <connection from="-1066214628#1" to="-1066214628#0" fromLane="0" toLane="0"/>
    <connection from="-1066214628#1" to="1066214628#1" fromLane="0" toLane="0"/>

    <connection from="-1066214628#2" to="-1066214628#1" fromLane="0" toLane="0"/>
    <connection from="-1066214628#2" to="1066214627" fromLane="0" toLane="0"/>
    <connection from="-1066214628#2" to="1066214628#2" fromLane="0" toLane="0"/>

    <connection from="-1066214629" to="37051625#2" fromLane="0" toLane="0"/>
    <connection from="-1066214629" to="-37051625#1" fromLane="0" toLane="0"/>
    <connection from="-1066214629" to="1066214629" fromLane="0" toLane="0"/>

    <connection from="-1066214630" to="1066214630" fromLane="0" toLane="0"/>

    <connection from="-1066214634" to="1066214633" fromLane="0" toLane="0"/>

    <connection from="-1066214645" to="1066214645" fromLane="0" toLane="0"/>

    <connection from="-1066214647#0" to="-1119245057#2" fromLane="0" toLane="0"/>
    <connection from="-1066214647#0" to="1119245057#3" fromLane="0" toLane="0"/>
    <connection from="-1066214647#0" to="1066214647#0" fromLane="0" toLane="0"/>

    <connection from="-1066214647#1" to="-1066214647#0" fromLane="0" toLane="0"/>
    <connection from="-1066214647#1" to="1066214647#1" fromLane="0" toLane="0"/>

    <connection from="-1079723589" to="153732959#1" fromLane="0" toLane="0"/>
    <connection from="-1079723589" to="-153732959#0" fromLane="0" toLane="0"/>
    <connection from="-1079723589" to="1079723589" fromLane="0" toLane="0"/>

    <connection from="-1079723591" to="1079723592" fromLane="0" toLane="0"/>
    <connection from="-1079723591" to="-153732959#1" fromLane="0" toLane="0"/>

    <connection from="-1079723592" to="-153732959#1" fromLane="0" toLane="0"/>
    <connection from="-1079723592" to="1079723591" fromLane="0" toLane="0"/>
    <connection from="-1079723592" to="1079723592" fromLane="0" toLane="0"/>

    <connection from="-1079723593" to="1079723597#1" fromLane="0" toLane="0"/>
    <connection from="-1079723593" to="1079723596" fromLane="0" toLane="0"/>
    <connection from="-1079723593" to="1079723593" fromLane="0" toLane="0"/>

    <connection from="-1079723596" to="1079723593" fromLane="0" toLane="0"/>
    <connection from="-1079723596" to="1079723597#1" fromLane="0" toLane="0"/>
    <connection from="-1079723596" to="1079723596" fromLane="0" toLane="0"/>

    <connection from="-1079723598" to="-648178452#0" fromLane="0" toLane="0"/>
    <connection from="-1079723598" to="648178452#1" fromLane="0" toLane="0"/>
    <connection from="-1079723598" to="1079723598" fromLane="0" toLane="0"/>

    <connection from="-1079723600#0" to="-509025806#0" fromLane="0" toLane="0"/>
    <connection from="-1079723600#0" to="509025806#1" fromLane="0" toLane="0"/>
    <connection from="-1079723600#0" to="1079723600#0" fromLane="0" toLane="0"/>

    <connection from="-1079723600#1" to="-1079723600#0" fromLane="0" toLane="0"/>
    <connection from="-1079723600#1" to="-1079723600#2" fromLane="0" toLane="0"/>
    <connection from="-1079723600#1" to="1079723600#1" fromLane="0" toLane="0"/>

    <connection from="-1079723600#2" to="-243835845#4" fromLane="0" toLane="0"/>
    <connection from="-1079723600#2" to="-1079723600#1" fromLane="0" toLane="0"/>
    <connection from="-1079723600#2" to="1079723600#2" fromLane="0" toLane="0"/>

    <connection from="-1079723603" to="1338884375" fromLane="0" toLane="0"/>
    <connection from="-1079723603" to="1079723603" fromLane="0" toLane="0"/>

    <connection from="-1079723609#0" to="1238948418#1" fromLane="0" toLane="0"/>
    <connection from="-1079723609#0" to="-1238948418#0" fromLane="0" toLane="0"/>
    <connection from="-1079723609#0" to="1079723609#0" fromLane="0" toLane="0"/>

    <connection from="-1079723609#1" to="-1079723609#0" fromLane="0" toLane="0"/>
    <connection from="-1079723609#1" to="1079723609#1" fromLane="0" toLane="0"/>

    <connection from="-1088466835#0" to="37088447#1" fromLane="0" toLane="0"/>
    <connection from="-1088466835#0" to="-37088447#0" fromLane="0" toLane="0"/>
    <connection from="-1088466835#0" to="1088466835#0" fromLane="0" toLane="0"/>

    <connection from="-1088466835#1" to="-1088466835#0" fromLane="0" toLane="0"/>
    <connection from="-1088466835#1" to="1088466835#1" fromLane="0" toLane="0"/>

    <connection from="-1088466838#0" to="-37088447#2" fromLane="0" toLane="0"/>

    <connection from="-1088466838#1" to="-1088466838#0" fromLane="0" toLane="0"/>
    <connection from="-1088466838#1" to="1088466868#0" fromLane="0" toLane="0"/>

    <connection from="-1088466839" to="-1088466840#1" fromLane="0" toLane="0"/>
    <connection from="-1088466839" to="1088466840#2" fromLane="0" toLane="0"/>
    <connection from="-1088466839" to="1088466839" fromLane="0" toLane="0"/>

    <connection from="-1088466840#0" to="37088447#2" fromLane="0" toLane="0"/>
    <connection from="-1088466840#0" to="-37088447#1" fromLane="0" toLane="0"/>
    <connection from="-1088466840#0" to="1088466840#0" fromLane="0" toLane="0"/>

    <connection from="-1088466840#1" to="-1088466840#0" fromLane="0" toLane="0"/>
    <connection from="-1088466840#1" to="1088466840#1" fromLane="0" toLane="0"/>

    <connection from="-1088466840#2" to="1088466839" fromLane="0" toLane="0"/>
    <connection from="-1088466840#2" to="-1088466840#1" fromLane="0" toLane="0"/>
    <connection from="-1088466840#2" to="1088466840#2" fromLane="0" toLane="0"/>

    <connection from="-1088466849" to="-319058619#1" fromLane="0" toLane="0"/>
    <connection from="-1088466849" to="319058619#2" fromLane="0" toLane="0"/>
    <connection from="-1088466849" to="1088466849" fromLane="0" toLane="0"/>

    <connection from="-1088466873" to="-415790473#0" fromLane="0" toLane="0"/>
    <connection from="-1088466873" to="415790473#1" fromLane="0" toLane="0"/>
    <connection from="-1088466873" to="1088466873" fromLane="0" toLane="0"/>

    <connection from="-1102935201" to="1339478331#0" fromLane="0" toLane="0"/>
    <connection from="-1102935201" to="1102935201" fromLane="0" toLane="1"/>

    <connection from="-1102935203" to="-610135148#1" fromLane="0" toLane="0"/>
    <connection from="-1102935203" to="1102935203" fromLane="0" toLane="0"/>

    <connection from="-1102935205" to="-1102935203" fromLane="0" toLane="0"/>
    <connection from="-1102935205" to="1102935205" fromLane="0" toLane="0"/>

    <connection from="-1109771198#0" to="-36936392#1" fromLane="0" toLane="0"/>
    <connection from="-1109771198#0" to="1109771198#0" fromLane="0" toLane="0"/>

    <connection from="-1109771198#1" to="1109771199#0" fromLane="0" toLane="0"/>
    <connection from="-1109771198#1" to="-1109771198#0" fromLane="0" toLane="0"/>

    <connection from="-1109771199#0" to="-1109771198#0" fromLane="0" toLane="0"/>
    <connection from="-1109771199#0" to="1109771198#1" fromLane="0" toLane="0"/>
    <connection from="-1109771199#0" to="1109771199#0" fromLane="0" toLane="0"/>

    <connection from="-1109771199#1" to="-1109771199#0" fromLane="0" toLane="0"/>
    <connection from="-1109771199#1" to="1109771199#1" fromLane="0" toLane="0"/>

    <connection from="-1109771199#2" to="-1109771199#1" fromLane="0" toLane="0"/>
    <connection from="-1109771199#2" to="1297182552" fromLane="0" toLane="0"/>
    <connection from="-1109771199#2" to="1109771199#2" fromLane="0" toLane="0"/>

    <connection from="-1109771199#3" to="-1109771199#2" fromLane="0" toLane="0"/>
    <connection from="-1109771199#3" to="1109771199#3" fromLane="0" toLane="0"/>

    <connection from="-1109771199#4" to="-1109771199#3" fromLane="0" toLane="0"/>
    <connection from="-1109771199#4" to="1109771199#4" fromLane="0" toLane="0"/>

    <connection from="-1109772710" to="1109772706" fromLane="0" toLane="0"/>

    <connection from="-1109772714" to="1057740877#2" fromLane="0" toLane="0"/>
    <connection from="-1109772714" to="-1057740877#1" fromLane="0" toLane="0"/>
    <connection from="-1109772714" to="1109772713" fromLane="0" toLane="0"/>

    <connection from="-1109772718" to="36936590#7" fromLane="0" toLane="0"/>
    <connection from="-1109772718" to="1109772718" fromLane="0" toLane="0"/>

    <connection from="-1109772719" to="650117423" fromLane="0" toLane="0"/>
    <connection from="-1109772719" to="36936590#6" fromLane="0" toLane="0"/>
    <connection from="-1109772719" to="1109772719" fromLane="0" toLane="0"/>

    <connection from="-1119243207" to="-187827274" fromLane="0" toLane="0"/>

    <connection from="-1119245056" to="-36293947#2" fromLane="0" toLane="0"/>
    <connection from="-1119245056" to="-1066214634" fromLane="0" toLane="0"/>
    <connection from="-1119245056" to="-37054066" fromLane="0" toLane="0"/>
    <connection from="-1119245056" to="1119245056" fromLane="0" toLane="0"/>

    <connection from="-1119245057#0" to="-1119245060#1" fromLane="0" toLane="0"/>
    <connection from="-1119245057#0" to="1119245060#2" fromLane="0" toLane="0"/>
    <connection from="-1119245057#0" to="1119245057#0" fromLane="0" toLane="0"/>

    <connection from="-1119245057#1" to="-1119245057#0" fromLane="0" toLane="0"/>
    <connection from="-1119245057#1" to="-327343100" fromLane="0" toLane="0"/>

    <connection from="-1119245057#2" to="-476687231#3" fromLane="0" toLane="0"/>
    <connection from="-1119245057#2" to="-1119245057#1" fromLane="0" toLane="0"/>
    <connection from="-1119245057#2" to="1119245057#2" fromLane="0" toLane="0"/>

    <connection from="-1119245057#3" to="1066214647#0" fromLane="0" toLane="0"/>
    <connection from="-1119245057#3" to="-1119245057#2" fromLane="0" toLane="0"/>

    <connection from="-1119245058" to="-1119245057#3" fromLane="0" toLane="0"/>
    <connection from="-1119245058" to="327343079#0" fromLane="0" toLane="0"/>

    <connection from="-1119245059#0" to="-676323628" fromLane="0" toLane="0"/>
    <connection from="-1119245059#0" to="-676323629" fromLane="0" toLane="0"/>
    <connection from="-1119245059#0" to="1119245059#0" fromLane="0" toLane="0"/>

    <connection from="-1119245059#1" to="-1119245059#0" fromLane="0" toLane="0"/>
    <connection from="-1119245059#1" to="1119245059#1" fromLane="0" toLane="0"/>

    <connection from="-1119245060#0" to="-36293459#10" fromLane="0" toLane="0"/>
    <connection from="-1119245060#0" to="37049908" fromLane="0" toLane="0"/>
    <connection from="-1119245060#0" to="1119245060#0" fromLane="0" toLane="0"/>

    <connection from="-1119245060#1" to="-1119245060#0" fromLane="0" toLane="0"/>
    <connection from="-1119245060#1" to="327343104#0" fromLane="0" toLane="0"/>

    <connection from="-1119245060#2" to="1119245057#0" fromLane="0" toLane="0"/>
    <connection from="-1119245060#2" to="-1119245060#1" fromLane="0" toLane="0"/>
    <connection from="-1119245060#2" to="1119245060#2" fromLane="0" toLane="0"/>

    <connection from="-1119245061" to="-1119245060#2" fromLane="0" toLane="0"/>
    <connection from="-1119245061" to="-156460680#1" fromLane="0" toLane="0"/>
    <connection from="-1119245061" to="1119245061" fromLane="0" toLane="0"/>

    <connection from="-1119245070" to="37050033#0" fromLane="0" toLane="0"/>
    <connection from="-1119245070" to="-1119245071" fromLane="0" toLane="0"/>
    <connection from="-1119245070" to="1119245070" fromLane="0" toLane="0"/>

    <connection from="-1119245071" to="-1299820133" fromLane="0" toLane="0"/>
    <connection from="-1119245071" to="37050515#0" fromLane="0" toLane="0"/>
    <connection from="-1119245071" to="1237352048" fromLane="0" toLane="0"/>

    <connection from="-1119245074" to="-156466997#3" fromLane="0" toLane="0"/>
    <connection from="-1119245074" to="-36290738#2" fromLane="0" toLane="0"/>
    <connection from="-1119245074" to="1119245074" fromLane="0" toLane="0"/>

    <connection from="-1119245473" to="157574536#0" fromLane="0" toLane="0"/>
    <connection from="-1119245473" to="1239117022#0" fromLane="0" toLane="0"/>
    <connection from="-1119245473" to="-710476024#1" fromLane="0" toLane="0"/>
    <connection from="-1119245473" to="1119245473" fromLane="0" toLane="0"/>

    <connection from="-1119245692" to="36936396#2" fromLane="0" toLane="0"/>
    <connection from="-1119245692" to="394456381" fromLane="0" toLane="0"/>

    <connection from="-1119245693" to="-1119245692" fromLane="0" toLane="0"/>
    <connection from="-1119245693" to="777654407" fromLane="0" toLane="0"/>
    <connection from="-1119245693" to="1119245693" fromLane="0" toLane="0"/>

    <connection from="-1162674260" to="39820659#0" fromLane="0" toLane="0"/>
    <connection from="-1162674260" to="37088542" fromLane="0" toLane="0"/>
    <connection from="-1162674260" to="1162674260" fromLane="0" toLane="0"/>

    <connection from="-1165362989" to="-1165362990#1" fromLane="0" toLane="0"/>

    <connection from="-1165362990#0" to="-319058623#0" fromLane="0" toLane="0"/>

    <connection from="-1165362990#1" to="-1165362990#0" fromLane="0" toLane="0"/>

    <connection from="-1165362991" to="-327268801#0" fromLane="0" toLane="0"/>
    <connection from="-1165362991" to="327268801#1" fromLane="0" toLane="0"/>
    <connection from="-1165362991" to="1165362991" fromLane="0" toLane="0"/>

    <connection from="-1174006416#0" to="36950506#2" fromLane="0" toLane="0"/>
    <connection from="-1174006416#0" to="-36950506#1" fromLane="0" toLane="0"/>
    <connection from="-1174006416#0" to="1174006416#0" fromLane="0" toLane="0"/>

    <connection from="-1174006416#1" to="-1174006416#0" fromLane="0" toLane="0"/>
    <connection from="-1174006416#1" to="191954837" fromLane="0" toLane="0"/>
    <connection from="-1174006416#1" to="1174006416#1" fromLane="0" toLane="0"/>

    <connection from="-1174006416#2" to="-1174006416#1" fromLane="0" toLane="0"/>
    <connection from="-1174006416#2" to="1174006416#2" fromLane="0" toLane="0"/>

    <connection from="-1174006416#3" to="-1174006416#2" fromLane="0" toLane="0"/>
    <connection from="-1174006416#3" to="191954841" fromLane="0" toLane="0"/>