<edges xmlns:xsi="http://www.w3.org/2001/XMLSchema-instance" version="1.16" xsi:noNamespaceSchemaLocation="http://sumo.dlr.de/xsd/edges_file.xsd">
    <location netOffset="-519338.38,-5375753.89" convBoundary="0.00,0.00,5287.68,9052.27" origBoundary="3.262136,48.534468,3.334037,48.615847" projParameter="+proj=utm +zone=31 +ellps=WGS84 +datum=WGS84 +units=m +no_defs" />

    <edge id="-1024000539#0" from="1687124785" to="430921309" priority="3" type="highway.residential" numLanes="1" speed="13.89" shape="2953.57,3281.41 3090.92,3255.99 3096.33,3256.16 3101.82,3257.16 3106.21,3259.14 3110.13,3262.16 3125.70,3281.20" disallow="tram rail_urban rail rail_electric rail_fast ship" />
    <edge id="-1024000539#1" from="3340881357" to="1687124785" priority="3" type="highway.residential" numLanes="1" speed="13.89" disallow="tram rail_urban rail rail_electric rail_fast ship" />
    <edge id="-1024000539#2" from="430920519" to="3340881357" priority="3" type="highway.residential" numLanes="1" speed="13.89" shape="2818.42,3310.28 2823.95,3309.25 2849.27,3302.09" disallow="tram rail_urban rail rail_electric rail_fast ship" />
    <edge id="-1024000539#3" from="3340881368" to="430920519" priority="3" type="highway.residential" numLanes="1" speed="13.89" shape="2772.08,3319.36 2812.48,3311.07 2818.42,3310.28" disallow="tram rail_urban rail rail_electric rail_fast ship" />
    <edge id="-1024000548" from="423413664" to="423413660" priority="4" type="highway.unclassified" numLanes="1" speed="13.89" shape="2012.17,4078.86 1991.90,4068.83 1973.49,4059.90 1837.35,4002.73 1832.71,3997.70" disallow="tram rail_urban rail rail_electric rail_fast ship" />
    <edge id="-1057740876" from="9719107989" to="9719107999" priority="4" type="highway.unclassified" numLanes="1" speed="13.89" shape="1893.06,1863.39 1853.12,1813.61 1841.38,1803.10 1817.23,1790.47 1774.52,1766.05 1760.35,1754.99 1749.02,1742.41 1738.11,1721.79 1725.79,1694.96 1717.60,1673.76" disallow="tram rail_urban rail rail_electric rail_fast ship" />
    <edge id="-1057740877#0" from="10152611762" to="9719108001" priority="4" type="highway.unclassified" numLanes="1" speed="8.33" disallow="tram rail_urban rail rail_electric rail_fast ship" />
    <edge id="-1057740877#1" from="10152611763" to="10152611762" priority="4" type="highway.unclassified" numLanes="1" speed="8.33" disallow="tram rail_urban rail rail_electric rail_fast ship" />
    <edge id="-1057740877#2" from="10092616463" to="10152611763" priority="4" type="highway.unclassified" numLanes="1" speed="8.33" shape="3407.70,1609.14 3412.97,1609.15 3416.36,1609.16" disallow="tram rail_urban rail rail_electric rail_fast ship" />
    <edge id="-1057740879" from="9719108001" to="9719108002" priority="4" type="highway.unclassified" numLanes="1" speed="13.89" disallow="tram rail_urban rail rail_electric rail_fast ship" />
    <edge id="-1057740880#0" from="9719108002" to="9719108008" priority="4" type="highway.unclassified" numLanes="1" speed="13.89" shape="3532.92,1392.64 3381.60,1344.49 3360.64,1337.35" disallow="tram rail_urban rail rail_electric rail_fast ship" />
    <edge id="-1057740880#1" from="9719108003" to="9719108002" priority="4" type="highway.unclassified" numLanes="1" speed="13.89" disallow="tram rail_urban rail rail_electric rail_fast ship" />
    <edge id="-106219259" from="1222774761" to="1222774784" priority="4" type="highway.unclassified" numLanes="1" speed="13.89" shape="2600.52,739.84 2572.31,674.04 2563.61,656.77 2557.20,644.30 2551.37,635.80 2543.48,624.21 2517.33,592.57 2473.41,541.74 2463.71,530.50 2416.61,459.20 2398.44,436.15 2377.84,414.10" disallow="tram rail_urban rail rail_electric rail_fast ship" />
    <edge id="-1079723591" from="4983153143" to="9897114285" priority="4" type="highway.unclassified" numLanes="1" speed="13.89" shape="1855.19,1273.18 1847.31,1267.98 1808.62,1243.45" disallow="tram rail_urban rail rail_electric rail_fast ship" />
    <edge id="-1079723596" from="9897114298" to="9897114302" priority="4" type="highway.unclassified" numLanes="1" speed="13.89" shape="1640.43,1280.01 1634.56,1289.56 1644.88,1296.72 1688.95,1327.27 1708.77,1339.63 1712.51,1341.96" disallow="tram rail_urban rail rail_electric rail_fast ship" />
    <edge id="-1079723603" from="5263712552" to="1766536971" priority="10" type="highway.tertiary" numLanes="1" speed="22.22" disallow="tram rail_urban rail rail_electric rail_fast ship">
        <param key="ref" value="D 1e" />
    </edge>
    <edge id="-1088466838#0" from="9972395432" to="9972369512" priority="10" type="highway.tertiary" numLanes="1" speed="22.22" disallow="tram rail_urban rail rail_electric rail_fast ship" />
    <edge id="-1088466838#1" from="1663593028" to="9972395432" priority="10" type="highway.tertiary" numLanes="1" speed="22.22" disallow="tram rail_urban rail rail_electric rail_fast ship" />
    <edge id="-1102935201" from="2511999113" to="2511999107" priority="12" type="highway.primary" numLanes="1" speed="13.89" disallow="tram rail_urban rail rail_electric rail_fast ship">
        <param key="ref" value="D 403" />
    </edge>
    <edge id="-1102935203" from="9719108000" to="10092616465" priority="11" type="highway.secondary" numLanes="1" speed="27.78" disallow="tram rail_urban rail rail_electric rail_fast ship">
        <param key="ref" value="D 1d" />
    </edge>
    <edge id="-1102935205" from="2010682070" to="9719108000" priority="11" type="highway.secondary" numLanes="1" speed="27.78" shape="3429.40,1740.91 3427.89,1733.74 3418.80,1702.87 3403.38,1649.52 3395.93,1623.41" disallow="tram rail_urban rail rail_electric rail_fast ship">
        <param key="ref" value="D 1d" />
    </edge>
    <edge id="-1109771198#0" from="10152611637" to="429515276" priority="3" type="highway.residential" numLanes="1" speed="13.89" shape="2615.00,2780.24 2615.83,2784.89 2617.08,2799.33 2616.79,2811.37" disallow="tram rail_urban rail rail_electric rail_fast ship" />
    <edge id="-1109771198#1" from="1687286936" to="10152611637" priority="3" type="highway.residential" numLanes="1" speed="13.89" shape="2611.51,2772.48 2614.76,2778.43 2615.00,2780.24" disallow="tram rail_urban rail rail_electric rail_fast ship" />
    <edge id="-1109772710" from="10152611760" to="10152611759" priority="12" type="highway.primary" numLanes="1" speed="27.78" shape="3716.57,1854.50 3663.97,1841.21 3568.36,1815.50" disallow="tram rail_urban rail rail_electric rail_fast ship">
        <param key="ref" value="D 619" />
    </edge>
    <edge id="-1119243207" from="423389699" to="441268024" priority="3" type="highway.residential" numLanes="1" speed="13.89" shape="1604.10,3401.49 1607.59,3405.74 1618.17,3417.31 1629.09,3427.21 1637.02,3431.58 1671.01,3434.95 1693.61,3435.21 1709.69,3435.35" disallow="tram rail_urban rail rail_electric rail_fast ship" />
    <edge id="-1119245056" from="6333711041" to="430938925" priority="3" type="highway.residential" numLanes="1" speed="13.89" disallow="tram rail_urban rail rail_electric rail_fast ship" />
    <edge id="-1119245057#0" from="423425137" to="423425148" priority="3" type="highway.residential" numLanes="1" speed="13.89" shape="2890.05,3529.20 2891.12,3512.51 2899.70,3479.64 2912.15,3435.37 2905.75,3417.93" disallow="tram rail_urban rail rail_electric rail_fast ship" />
    <edge id="-1119245057#1" from="423425135" to="423425137" priority="3" type="highway.residential" numLanes="1" speed="13.89" shape="2899.73,3593.66 2892.52,3559.21 2890.05,3529.20" disallow="tram rail_urban rail rail_electric rail_fast ship" />
    <edge id="-1119245057#2" from="3340881679" to="423425135" priority="3" type="highway.residential" numLanes="1" speed="13.89" shape="2912.39,3734.01 2915.52,3689.09 2914.81,3655.19 2903.42,3603.96 2899.73,3593.66" disallow="tram rail_urban rail rail_electric rail_fast ship" />
    <edge id="-1119245057#3" from="3340881694" to="3340881679" priority="3" type="highway.residential" numLanes="1" speed="13.89" shape="2922.04,3782.51 2914.82,3749.35 2912.39,3734.01" disallow="tram rail_urban rail rail_electric rail_fast ship" />
    <edge id="-1119245058" from="2513116050" to="3340881694" priority="3" type="highway.residential" numLanes="1" speed="13.89" shape="2949.45,3849.82 2946.89,3842.24 2938.54,3823.65 2932.35,3809.85 2923.90,3791.04 2922.04,3782.51" disallow="tram rail_urban rail rail_electric rail_fast ship" />
    <edge id="-1119245060#0" from="3340881462" to="430894463" priority="11" type="highway.secondary" numLanes="1" speed="27.78" shape="2869.94,3435.71 2861.80,3439.07 2851.08,3443.40 2843.49,3445.68 2837.59,3447.45" disallow="tram rail_urban rail rail_electric rail_fast ship">
        <param key="ref" value="D 55" />
    </edge>
    <edge id="-1119245060#1" from="423425148" to="3340881462" priority="11" type="highway.secondary" numLanes="1" speed="27.78" disallow="tram rail_urban rail rail_electric rail_fast ship">
        <param key="ref" value="D 55" />
    </edge>
    <edge id="-1119245060#2" from="8916107651" to="423425148" priority="11" type="highway.secondary" numLanes="1" speed="27.78" disallow="tram rail_urban rail rail_electric rail_fast ship">
        <param key="ref" value="D 55" />
    </edge>
    <edge id="-1119245061" from="3340881416" to="8916107651" priority="11" type="highway.secondary" numLanes="1" speed="27.78" shape="2988.57,3375.39 2982.33,3378.47 2931.08,3404.82 2920.86,3410.32" disallow="tram rail_urban rail rail_electric rail_fast ship">
        <param key="ref" value="D 55" />
    </edge>
    <edge id="-1119245070" from="429653579" to="430895473" priority="3" type="highway.residential" numLanes="1" speed="13.89" shape="2759.80,2882.23 2760.20,2890.80 2760.26,2897.75" disallow="tram rail_urban rail rail_electric rail_fast ship" />
    <edge id="-1119245071" from="430895473" to="430901229" priority="3" type="highway.residential" numLanes="1" speed="13.89" shape="2760.26,2897.75 2764.37,2929.80 2769.70,2969.01" disallow="tram rail_urban rail rail_electric rail_fast ship" />
    <edge id="-1119245074" from="1687165259" to="1687165275" priority="3" type="highway.residential" numLanes="1" speed="13.89" shape="1754.83,3248.98 1777.35,3221.55 1793.39,3198.74" disallow="tram rail_urban rail rail_electric rail_fast ship" />
    <edge id="-1119245692" from="621155637" to="423353694" priority="3" type="highway.residential" numLanes="1" speed="13.89" shape="2908.00,2785.61 2889.23,2794.64 2875.00,2768.04" disallow="tram rail_urban rail rail_electric rail_fast ship" />
    <edge id="-1119245693" from="7257331823" to="621155637" priority="3" type="highway.residential" numLanes="1" speed="13.89" disallow="tram rail_urban rail rail_electric rail_fast ship" />
    <edge id="-1162674260" from="9972395328" to="431334400" priority="10" type="highway.tertiary" numLanes="1" speed="22.22" disallow="tram rail_urban rail rail_electric rail_fast ship">
        <param key="ref" value="D 1" />
    </edge>
    <edge id="-1165362989" from="3254769439" to="10839457927" priority="2" type="highway.living_street" numLanes="1" speed="2.78" shape="1408.77,2903.39 1401.47,2919.86 1400.41,2922.27" disallow="tram rail_urban rail rail_electric rail_fast ship" />
    <edge id="-1165362990#0" from="3204645334" to="10839457934" priority="2" type="highway.living_street" numLanes="1" speed="2.78" shape="1394.98,2934.55 1393.30,2937.93 1386.79,2951.07" disallow="tram rail_urban rail rail_electric rail_fast ship" />
    <edge id="-1165362990#1" from="10839457927" to="3204645334" priority="2" type="highway.living_street" numLanes="1" speed="2.78" disallow="tram rail_urban rail rail_electric rail_fast ship" />
    <edge id="-1237369283" from="3204643489" to="418600284" priority="4" type="highway.unclassified" numLanes="1" speed="13.89" shape="1224.23,2817.25 1191.60,2805.21 1162.52,2791.85 1142.91,2784.19 1132.76,2779.02 1131.78,2773.89" disallow="tram rail_urban rail rail_electric rail_fast ship" />
    <edge id="-1237371405" from="11492610792" to="3204645804" priority="3" type="highway.residential" numLanes="1" speed="13.89" disallow="tram rail_urban rail rail_electric rail_fast ship" />
    <edge id="-1238426234#0" from="3469068912" to="418609058" priority="12" type="highway.primary" numLanes="1" speed="13.89" shape="1820.13,2192.13 1811.20,2152.45 1810.99,2145.62" disallow="tram rail_urban rail rail_electric rail_fast ship">
        <param key="ref" value="D 403" />
    </edge>
    <edge id="-1238426236" from="1767323500" to="1767322357" priority="3" type="highway.residential" numLanes="1" speed="13.89" disallow="tram rail_urban rail rail_electric rail_fast ship" />
    <edge id="-1238426237" from="1767285014" to="5263712552" priority="10" type="highway.tertiary" numLanes="1" speed="22.22" shape="1348.65,692.39 1366.79,701.44 1392.47,716.15 1444.22,748.71 1499.53,783.65 1579.92,835.08 1646.63,878.04 1667.62,888.30 1711.30,906.23 1722.45,910.94 1755.34,924.85 1794.27,942.55 1824.46,959.30 1857.06,986.41 1884.09,1012.18 1902.82,1031.20 1937.15,1063.11 1954.83,1079.82 1959.90,1084.60" disallow="tram rail_urban rail rail_electric rail_fast ship">
        <param key="ref" value="D 1e" />
    </edge>
    <edge id="-1238426239" from="1767302209" to="1767302227" priority="4" type="highway.unclassified" numLanes="1" speed="13.89" shape="1749.63,377.15 1753.98,382.14 1759.96,388.83 1770.80,403.67 1788.13,428.80 1806.04,456.32 1824.73,487.38 1838.11,510.33 1848.72,531.89 1854.01,545.13 1855.96,556.39 1856.89,571.40 1854.46,585.21 1850.84,601.18 1847.43,612.61 1844.41,624.84 1842.79,635.11 1835.33,722.53 1835.51,728.25 1836.87,734.37 1840.82,738.33" disallow="tram rail_urban rail rail_electric rail_fast ship" />
    <edge id="-1238426242" from="1767344724" to="1767322317" priority="3" type="highway.residential" numLanes="1" speed="13.89" shape="2433.49,1265.44 2432.25,1273.83 2428.20,1297.10" disallow="tram rail_urban rail rail_electric rail_fast ship" />
    <edge id="-1238426243" from="5777445927" to="1767344707" priority="3" type="highway.residential" numLanes="1" speed="13.89" disallow="tram rail_urban rail rail_electric rail_fast ship" />
    <edge id="-1238948418#0" from="9897124748" to="2511985648" priority="10" type="highway.tertiary" numLanes="1" speed="22.22" disallow="tram rail_urban rail rail_electric rail_fast ship">
        <param key="ref" value="D 1f" />
    </edge>
    <edge id="-1239117016#0" from="3471018057" to="3974640291" priority="4" type="highway.unclassified" numLanes="1" speed="13.89" disallow="tram rail_urban rail rail_electric rail_fast ship" />
    <edge id="-1239117016#1" from="3974576101" to="3471018057" priority="4" type="highway.unclassified" numLanes="1" speed="13.89" disallow="tram rail_urban rail rail_electric rail_fast ship" />
    <edge id="-1239117016#2" from="4980006045" to="3974576101" priority="4" type="highway.unclassified" numLanes="1" speed="13.89" shape="3683.64,2706.97 3681.11,2702.82 3677.55,2698.96 3672.80,2696.36 3665.68,2693.76 3639.28,2684.24 3610.76,2672.06 3581.80,2656.73 3555.09,2639.91 3532.70,2623.70 3508.09,2602.76 3483.64,2575.16 3475.62,2565.51" disallow="tram rail_urban rail rail_electric rail_fast ship" />
    <edge id="-1239117018" from="2962483937" to="1687124670" priority="3" type="highway.residential" numLanes="1" speed="13.89" shape="1849.34,4948.46 1873.28,4910.63 1897.67,4866.24 1922.97,4803.84 1946.95,4758.38 1954.47,4734.89 1956.68,4713.08 1956.60,4637.56" disallow="tram rail_urban rail rail_electric rail_fast ship" />
    <edge id="-1239117021" from="1687124701" to="11510936199" priority="4" type="highway.unclassified" numLanes="1" speed="13.89" shape="2118.23,4370.38 2038.03,4464.88 2006.50,4508.76" disallow="tram rail_urban rail rail_electric rail_fast ship" />
    <edge id="-1239117024" from="429478908" to="3974531856" priority="3" type="highway.residential" numLanes="1" speed="13.89" shape="2446.22,2081.42 2442.17,2064.68 2431.94,2049.44 2362.06,1949.51 2355.12,1938.67 2352.36,1931.84 2350.73,1919.71 2349.08,1911.30 2346.35,1902.42 2339.21,1887.90 2331.83,1876.17 2327.46,1870.57 2322.94,1865.02 2316.68,1858.95 2303.46,1849.23 2285.68,1838.30 2272.47,1825.23 2255.14,1802.46 2199.42,1723.11 2143.70,1645.14 2094.47,1577.05 2078.01,1553.99" disallow="tram rail_urban rail rail_electric rail_fast ship" />
    <edge id="-1239117045" from="429520308" to="3262396875" priority="10" type="highway.tertiary" numLanes="1" speed="22.22" shape="2783.44,1633.31 2826.84,1683.70 2838.24,1697.36 2866.68,1730.27 2884.98,1746.13 2965.05,1804.56" disallow="tram rail_urban rail rail_electric rail_fast ship">
        <param key="ref" value="D 1" />
    </edge>
    <edge id="-1299820133" from="430901229" to="430912564" priority="3" type="highway.residential" numLanes="1" speed="13.89" shape="2769.70,2969.01 2770.18,2972.27 2771.00,2978.01 2794.26,3141.16 2794.75,3145.63 2795.24,3150.09" disallow="tram rail_urban rail rail_electric rail_fast ship" />
    <edge id="-1339478328#0" from="3471386122" to="429504429" priority="10" type="highway.tertiary" numLanes="1" speed="13.89" shape="2006.03,2738.29 2020.15,2737.72 2129.37,2732.10 2136.74,2731.55 2147.24,2730.95" disallow="tram rail_urban rail rail_electric rail_fast ship" />
    <edge id="-1339478331#1" from="12390308742" to="2511999107" priority="12" type="highway.primary" numLanes="1" speed="13.89" shape="1583.52,1625.34 1524.79,1560.02 1521.93,1556.83" disallow="tram rail_urban rail rail_electric rail_fast ship">
        <param key="ref" value="D 403" />
    </edge>
    <edge id="-1339478332#0" from="3974531848" to="1766515560" priority="12" type="highway.primary" numLanes="1" speed="13.89" disallow="tram rail_urban rail rail_electric rail_fast ship">
        <param key="ref" value="D 403" />
    </edge>
    <edge id="-1339478332#1" from="12390308745" to="3974531848" priority="12" type="highway.primary" numLanes="1" speed="13.89" disallow="tram rail_urban rail rail_electric rail_fast ship">
        <param key="ref" value="D 403" />
    </edge>
    <edge id="-1339510609#0" from="429655331" to="12390642063" priority="11" type="highway.secondary" numLanes="1" speed="13.89" shape="3262.67,2614.16 3273.61,2618.14 3287.57,2627.75" disallow="tram rail_urban rail rail_electric rail_fast ship" />
    <edge id="-1339510610" from="429655333" to="12390642064" priority="11" type="highway.secondary" numLanes="1" speed="13.89" shape="3211.02,2618.02 3198.42,2616.68 3168.03,2615.19" disallow="tram rail_urban rail rail_electric rail_fast ship">
        <param key="ref" value="D 74" />
    </edge>
    <edge id="-1371061454" from="1767325521" to="1767335324" priority="3" type="highway.residential" numLanes="1" speed="13.89" disallow="tram rail_urban rail rail_electric rail_fast ship" />
    <edge id="-13937774#0" from="423359653" to="3204643489" priority="3" type="highway.residential" numLanes="1" speed="13.89" shape="1262.87,2828.62 1241.46,2823.47 1224.23,2817.25" disallow="tram rail_urban rail rail_electric rail_fast ship" />
    <edge id="-13937774#1" from="423361227" to="423359653" priority="3" type="highway.residential" numLanes="1" speed="13.89" shape="1344.04,2854.39 1329.51,2845.75 1304.84,2837.20 1262.87,2828.62" disallow="tram rail_urban rail rail_electric rail_fast ship" />
    <edge id="-153730003#0" from="1663572730" to="1663572789" priority="3" type="highway.residential" numLanes="1" speed="13.89" disallow="tram rail_urban rail rail_electric rail_fast ship" />
    <edge id="-153730003#1" from="1663572707" to="1663572730" priority="3" type="highway.residential" numLanes="1" speed="13.89" disallow="tram rail_urban rail rail_electric rail_fast ship" />
    <edge id="-153730003#2" from="1663572697" to="1663572707" priority="3" type="highway.residential" numLanes="1" speed="13.89" disallow="tram rail_urban rail rail_electric rail_fast ship" />
    <edge id="-153730008#0" from="1663572768" to="429520296" priority="3" type="highway.residential" numLanes="1" speed="13.89" shape="3028.31,2040.66 3043.16,2066.63 3055.31,2080.26" disallow="tram rail_urban rail rail_electric rail_fast ship" />
    <edge id="-153730008#1" from="1663572830" to="1663572768" priority="3" type="highway.residential" numLanes="1" speed="13.89" shape="3021.23,1979.26 3019.15,2005.50 3021.66,2022.08 3028.31,2040.66" disallow="tram rail_urban rail rail_electric rail_fast ship" />
    <edge id="-153730008#2" from="429520299" to="1663572830" priority="3" type="highway.residential" numLanes="1" speed="13.89" shape="3045.86,1910.34 3040.41,1940.97 3025.82,1969.01 3021.23,1979.26" disallow="tram rail_urban rail rail_electric rail_fast ship" />
    <edge id="-153730009#0" from="1663572713" to="1663572779" priority="3" type="highway.residential" numLanes="1" speed="13.89" shape="3340.95,2297.38 3346.72,2284.30 3363.94,2254.95 3383.31,2261.34 3386.90,2257.01" disallow="tram rail_urban rail rail_electric rail_fast ship" />
    <edge id="-153730009#1" from="1663572730" to="1663572713" priority="3" type="highway.residential" numLanes="1" speed="13.89" shape="3249.04,2271.04 3323.22,2292.28 3340.95,2297.38" disallow="tram rail_urban rail rail_electric rail_fast ship" />
    <edge id="-153730010#0" from="1663572771" to="1663572725" priority="3" type="highway.residential" numLanes="1" speed="13.89" disallow="tram rail_urban rail rail_electric rail_fast ship" />
    <edge id="-153730010#1" from="1663572666" to="1663572771" priority="3" type="highway.residential" numLanes="1" speed="13.89" disallow="tram rail_urban rail rail_electric rail_fast ship" />
    <edge id="-153730010#2" from="431336421" to="1663572666" priority="3" type="highway.residential" numLanes="1" speed="13.89" disallow="tram rail_urban rail rail_electric rail_fast ship" />
    <edge id="-153730011" from="429520294" to="1663572898" priority="3" type="highway.residential" numLanes="1" speed="13.89" shape="3067.18,2122.62 3049.77,2119.49 3032.97,2113.31 3001.94,2102.33" disallow="tram rail_urban rail rail_electric rail_fast ship" />
    <edge id="-153730013#0" from="1663572633" to="1663572768" priority="3" type="highway.residential" numLanes="1" speed="13.89" disallow="tram rail_urban rail rail_electric rail_fast ship" />
    <edge id="-153730013#1" from="1663572804" to="1663572633" priority="3" type="highway.residential" numLanes="1" speed="13.89" disallow="tram rail_urban rail rail_electric rail_fast ship" />
    <edge id="-153730013#2" from="1663572742" to="1663572804" priority="3" type="highway.residential" numLanes="1" speed="13.89" disallow="tram rail_urban rail rail_electric rail_fast ship" />
    <edge id="-153730014#0" from="1663572766" to="1663572582" priority="3" type="highway.residential" numLanes="1" speed="13.89" disallow="tram rail_urban rail rail_electric rail_fast ship" />
    <edge id="-153730014#1" from="1663572804" to="1663572766" priority="3" type="highway.residential" numLanes="1" speed="13.89" shape="2974.43,2052.29 2965.64,2008.20 2966.90,2003.51 2971.69,1994.45 2979.65,1984.42" disallow="tram rail_urban rail rail_electric rail_fast ship" />
    <edge id="-153730015#0" from="1663572680" to="429520292" priority="3" type="highway.residential" numLanes="1" speed="13.89" disallow="tram rail_urban rail rail_electric rail_fast ship" />
    <edge id="-153730015#1" from="3974640257" to="1663572680" priority="3" type="highway.residential" numLanes="1" speed="13.89" disallow="tram rail_urban rail rail_electric rail_fast ship" />
    <edge id="-153730015#2" from="3974637330" to="3974640257" priority="3" type="highway.residential" numLanes="1" speed="13.89" shape="3141.39,1909.31 3122.38,2129.45 3118.48,2168.75" disallow="tram rail_urban rail rail_electric rail_fast ship" />
    <edge id="-153730015#3" from="1663572827" to="3974637330" priority="3" type="highway.residential" numLanes="1" speed="13.89" shape="3147.33,1827.60 3143.54,1884.42 3141.39,1909.31" disallow="tram rail_urban rail rail_electric rail_fast ship" />
    <edge id="-153730016#0" from="1663572674" to="1663572641" priority="3" type="highway.residential" numLanes="1" speed="13.89" shape="3176.29,2206.54 3182.53,2204.86 3207.65,2200.16 3215.19,2196.49 3236.92,2193.26" disallow="tram rail_urban rail rail_electric rail_fast ship" />
    <edge id="-153730016#1" from="1663572576" to="1663572674" priority="3" type="highway.residential" numLanes="1" speed="13.89" disallow="tram rail_urban rail rail_electric rail_fast ship" />
    <edge id="-153730017" from="1663572633" to="1663572766" priority="3" type="highway.residential" numLanes="1" speed="13.89" disallow="tram rail_urban rail rail_electric rail_fast ship" />
    <edge id="-153730018" from="1663572709" to="1663572719" priority="3" type="highway.residential" numLanes="1" speed="13.89" shape="3011.99,1863.57 3005.28,1859.00 2889.80,1829.54 2878.92,1828.11 2869.99,1833.40 2866.40,1839.50 2857.33,1880.33 2851.36,1892.89" disallow="tram rail_urban rail rail_electric rail_fast ship" />
    <edge id="-153730020#0" from="1663572719" to="1663572590" priority="3" type="highway.residential" numLanes="1" speed="13.89" shape="2851.36,1892.89 2815.39,1876.41 2741.14,1829.54" disallow="tram rail_urban rail rail_electric rail_fast ship" />
    <edge id="-153730020#1" from="1663572887" to="1663572719" priority="3" type="highway.residential" numLanes="1" speed="13.89" shape="2995.72,1955.35 2982.98,1941.02 2966.80,1929.50 2874.16,1908.34 2851.36,1892.89" disallow="tram rail_urban rail rail_electric rail_fast ship" />
    <edge id="-153730020#2" from="1663572582" to="1663572887" priority="3" type="highway.residential" numLanes="1" speed="13.89" disallow="tram rail_urban rail rail_electric rail_fast ship" />
    <edge id="-153730020#3" from="1663572830" to="1663572582" priority="3" type="highway.residential" numLanes="1" speed="13.89" disallow="tram rail_urban rail rail_electric rail_fast ship" />
    <edge id="-153730022#0" from="3974576076" to="1663572894" priority="3" type="highway.residential" numLanes="1" speed="13.89" shape="3301.84,2234.27 3312.77,2232.44 3327.06,2223.02 3343.37,2203.75 3358.14,2171.83 3367.74,2147.41 3375.39,2131.92 3384.57,2119.15 3399.33,2104.48" disallow="tram rail_urban rail rail_electric rail_fast ship" />
    <edge id="-153730022#1" from="1663572789" to="3974576076" priority="3" type="highway.residential" numLanes="1" speed="13.89" shape="3253.74,2227.33 3298.91,2234.76 3301.84,2234.27" disallow="tram rail_urban rail rail_electric rail_fast ship" />
    <edge id="-153730022#2" from="1663572576" to="1663572789" priority="3" type="highway.residential" numLanes="1" speed="13.89" disallow="tram rail_urban rail rail_electric rail_fast ship" />
    <edge id="-153730022#3" from="1663572680" to="1663572576" priority="3" type="highway.residential" numLanes="1" speed="13.89" shape="3115.48,2216.06 3125.65,2212.64 3139.46,2212.41 3166.66,2215.22" disallow="tram rail_urban rail rail_electric rail_fast ship" />
    <edge id="-153730023" from="1663572674" to="1663572648" priority="3" type="highway.residential" numLanes="1" speed="13.89" disallow="tram rail_urban rail rail_electric rail_fast ship" />
    <edge id="-153730925#0" from="1663593067" to="1663593092" priority="3" type="highway.residential" numLanes="1" speed="13.89" shape="2750.56,2439.97 2748.11,2458.90 2747.61,2493.41" disallow="tram rail_urban rail rail_electric rail_fast ship" />
    <edge id="-153730925#1" from="1663593057" to="1663593067" priority="3" type="highway.residential" numLanes="1" speed="13.89" disallow="tram rail_urban rail rail_electric rail_fast ship" />
    <edge id="-153730928" from="429482598" to="429483201" priority="3" type="highway.residential" numLanes="1" speed="13.89" shape="2358.64,2582.26 2415.88,2529.83 2472.87,2476.44" disallow="tram rail_urban rail rail_electric rail_fast ship" />
    <edge id="-153730933#0" from="1663593092" to="1663593013" priority="3" type="highway.residential" numLanes="1" speed="13.89" shape="2747.61,2493.41 2728.18,2495.19 2710.56,2495.33 2672.93,2493.20" disallow="tram rail_urban rail rail_electric rail_fast ship" />
    <edge id="-153730933#1" from="1663593129" to="1663593092" priority="3" type="highway.residential" numLanes="1" speed="13.89" disallow="tram rail_urban rail rail_electric rail_fast ship" />
    <edge id="-153730934" from="423353680" to="1663593112" priority="3" type="highway.residential" numLanes="1" speed="13.89" disallow="tram rail_urban rail rail_electric rail_fast ship" />
    <edge id="-153730935" from="1663593224" to="1697838087" priority="3" type="highway.residential" numLanes="1" speed="13.89" shape="2914.99,2650.05 2931.06,2691.55 2939.89,2710.93 2955.15,2731.63 2956.50,2733.36 2958.19,2735.16" disallow="tram rail_urban rail rail_electric rail_fast ship" />
    <edge id="-153730937" from="2759219803" to="1663593188" priority="3" type="highway.residential" numLanes="1" speed="13.89" shape="2833.48,2473.42 2839.42,2492.87 2853.16,2521.15 2870.92,2551.70" disallow="tram rail_urban rail rail_electric rail_fast ship" />
    <edge id="-153730938" from="1663593129" to="1663593204" priority="3" type="highway.residential" numLanes="1" speed="13.89" shape="2750.92,2493.19 2752.16,2536.14 2671.37,2533.66" disallow="tram rail_urban rail rail_electric rail_fast ship" />
    <edge id="-153730939#0" from="1663593224" to="1663593059" priority="3" type="highway.residential" numLanes="1" speed="13.89" disallow="tram rail_urban rail rail_electric rail_fast ship" />
    <edge id="-153730939#1" from="1663593156" to="1663593224" priority="3" type="highway.residential" numLanes="1" speed="13.89" shape="2966.52,2630.46 2929.42,2643.11 2914.99,2650.05" disallow="tram rail_urban rail rail_electric rail_fast ship" />
    <edge id="-153732959#0" from="9897114272" to="1663642153" priority="4" type="highway.unclassified" numLanes="1" speed="13.89" shape="1757.08,1210.76 1740.62,1200.32 1721.61,1200.25 1686.43,1186.30 1665.09,1173.59 1652.41,1175.12" disallow="tram rail_urban rail rail_electric rail_fast ship" />