<?xml version="1.0" encoding="UTF-8"?>

<!-- generated on 2025-04-07 23:33:45 by Eclipse SUMO netconvert Version 1.19.0
<configuration xmlns:xsi="http://www.w3.org/2001/XMLSchema-instance" xsi:noNamespaceSchemaLocation="http://sumo.dlr.de/xsd/netconvertConfiguration.xsd">

    <input>
        <sumo-net-file value="provins/provins.net.xml"/>
    </input>

    <output>
        <plain-output-prefix value="provins/provins"/>
    </output>

    <processing>
        <geometry.min-radius.fix.railways value="false"/>
        <geometry.max-grade.fix value="false"/>
        <offset.disable-normalization value="true"/>
        <lefthand value="0"/>
    </processing>

    <tls_building>
        <tls.ignore-internal-junction-jam value="1"/>
    </tls_building>

    <junctions>
        <no-turnarounds value="true"/>
        <junctions.corner-detail value="5"/>
        <junctions.limit-turn-speed value="5.50"/>
        <rectangular-lane-cut value="0"/>
    </junctions>

    <pedestrian>
        <walkingareas value="0"/>
    </pedestrian>

</configuration>
-->

<nodes version="1.16" xmlns:xsi="http://www.w3.org/2001/XMLSchema-instance" xsi:noNamespaceSchemaLocation="http://sumo.dlr.de/xsd/nodes_file.xsd">
    <location netOffset="-519338.38,-5375753.89" convBoundary="0.00,0.00,5287.68,9052.27" origBoundary="3.262136,48.534468,3.334037,48.615847" projParameter="+proj=utm +zone=31 +ellps=WGS84 +datum=WGS84 +units=m +no_defs"/>

    <node id="10092616462" x="2171.45" y="1996.62" type="priority"/>
    <node id="10092616463" x="3407.70" y="1609.14" type="priority"/>
    <node id="10092616465" x="3389.66" y="1601.31" type="priority"/>
    <node id="10116093221" x="1651.56" y="657.60" type="priority"/>
    <node id="10152611637" x="2615.00" y="2780.24" type="priority"/>
    <node id="10152611638" x="2630.81" y="2772.74" type="right_before_left"/>
    <node id="10152611639" x="2620.90" y="2729.96" type="priority"/>
    <node id="10152611759" x="3568.36" y="1815.50" type="priority"/>
    <node id="10152611760" x="3716.57" y="1854.50" type="priority"/>
    <node id="10152611762" x="3520.43" y="1609.45" type="priority"/>
    <node id="10152611763" x="3416.36" y="1609.16" type="priority"/>
    <node id="10152611768" x="2438.23" y="1784.38" type="dead_end"/>
    <node id="10152611769" x="2432.48" y="1770.28" type="priority"/>
    <node id="10152611770" x="2427.65" y="1772.72" type="priority"/>
    <node id="10152611771" x="2391.13" y="1707.84" type="priority"/>
    <node id="10152611772" x="2368.69" y="1653.22" type="priority"/>
    <node id="10152611773" x="2361.06" y="1653.07" type="priority"/>
    <node id="10152611774" x="2284.47" y="1516.80" type="priority"/>
    <node id="10152611775" x="2292.98" y="1512.72" type="priority"/>
    <node id="1037893368" x="3722.41" y="4522.47" type="priority"/>
    <node id="10690432205" x="1104.41" y="783.34" type="dead_end"/>
    <node id="10690432325" x="2898.37" y="2313.99" type="dead_end"/>
    <node id="10690432329" x="2805.30" y="2310.94" type="dead_end"/>
    <node id="1078560165" x="1503.55" y="5428.22" type="priority"/>
    <node id="10824978454" x="1378.68" y="2905.55" type="dead_end"/>
    <node id="10824978470" x="1585.38" y="3013.96" type="dead_end"/>
    <node id="10824978476" x="1534.01" y="3095.28" type="dead_end"/>
    <node id="10824978478" x="1584.63" y="3010.82" type="dead_end"/>
    <node id="10824978487" x="1555.09" y="3060.19" type="dead_end"/>
    <node id="10824978493" x="1497.77" y="3155.64" type="dead_end"/>
    <node id="10825018314" x="1536.94" y="3090.41" type="dead_end"/>
    <node id="10825018337" x="1532.19" y="3098.32" type="dead_end"/>
    <node id="10825018339" x="1516.00" y="3125.28" type="dead_end"/>
    <node id="10825018340" x="1386.86" y="2916.51" type="dead_end"/>
    <node id="10825018345" x="1445.94" y="2950.24" type="dead_end"/>
    <node id="10825018358" x="1391.00" y="2913.80" type="dead_end"/>
    <node id="10825018359" x="1553.45" y="3062.92" type="dead_end"/>
    <node id="10825018360" x="1348.67" y="2885.72" type="dead_end"/>
    <node id="10825018361" x="1442.44" y="2958.16" type="dead_end"/>
    <node id="10825018365" x="1586.27" y="3007.86" type="dead_end"/>
    <node id="10825018381" x="1366.53" y="2897.51" type="dead_end"/>
    <node id="10825018382" x="1351.41" y="2887.52" type="dead_end"/>
    <node id="10825018393" x="1566.38" y="3041.39" type="dead_end"/>
    <node id="10825018404" x="1538.63" y="3087.60" type="dead_end"/>
    <node id="10825018410" x="1591.49" y="3024.26" type="priority"/>
    <node id="10825018416" x="1547.27" y="3073.20" type="dead_end"/>
    <node id="10825018419" x="1567.30" y="3039.86" type="dead_end"/>
    <node id="10825018424" x="1688.83" y="2906.28" type="right_before_left"/>
    <node id="10825018429" x="1489.58" y="3169.27" type="dead_end"/>
    <node id="10825018444" x="1571.15" y="3033.44" type="dead_end"/>
    <node id="10825018457" x="1377.40" y="2904.70" type="dead_end"/>
    <node id="10825018459" x="1467.26" y="3206.45" type="dead_end"/>
    <node id="10825018460" x="1545.59" y="3076.01" type="dead_end"/>
    <node id="10825018495" x="1689.72" y="2896.84" type="right_before_left"/>
    <node id="10825018509" x="1504.01" y="3145.25" type="dead_end"/>
    <node id="10825018511" x="1423.14" y="3279.93" type="dead_end"/>
    <node id="10825018527" x="1482.18" y="3181.59" type="dead_end"/>
    <node id="10825018538" x="1499.36" y="3153.00" type="dead_end"/>
    <node id="10825018582" x="1517.70" y="3122.44" type="dead_end"/>
    <node id="10825018583" x="1570.26" y="3034.92" type="dead_end"/>
    <node id="10825018598" x="1505.49" y="3142.79" type="dead_end"/>
    <node id="10825018619" x="1457.82" y="3222.18" type="dead_end"/>
    <node id="10825018654" x="1424.42" y="2940.77" type="dead_end"/>
    <node id="10825018656" x="1367.50" y="2898.16" type="dead_end"/>
    <node id="10825018667" x="1583.39" y="3013.05" type="dead_end"/>
    <node id="10825018669" x="1523.59" y="3112.64" type="dead_end"/>
    <node id="10825018671" x="1350.50" y="2886.92" type="dead_end"/>
    <node id="10825018674" x="1395.83" y="2920.60" type="dead_end"/>
    <node id="10825018685" x="1459.57" y="3219.25" type="dead_end"/>
    <node id="10825018689" x="1481.58" y="3182.59" type="dead_end"/>
    <node id="10825018695" x="1328.98" y="2883.54" type="priority"/>
    <node id="10825018698" x="1525.34" y="3109.72" type="dead_end"/>
    <node id="10825018706" x="1489.05" y="3170.15" type="dead_end"/>
    <node id="10825018712" x="1583.97" y="3012.01" type="dead_end"/>
    <node id="10825018713" x="1465.27" y="3209.77" type="dead_end"/>
    <node id="10839333847" x="2692.10" y="2751.88" type="priority"/>
    <node id="10839333883" x="3539.48" y="2728.49" type="right_before_left"/>
    <node id="10839333884" x="3515.10" y="2715.32" type="dead_end"/>
    <node id="10839452186" x="1365.61" y="2962.86" type="priority"/>
    <node id="10839457911" x="1582.81" y="3245.92" type="priority"/>
    <node id="10839457915" x="1389.04" y="2923.15" type="dead_end"/>
    <node id="10839457926" x="1385.59" y="2931.08" type="dead_end"/>
    <node id="10839457927" x="1400.41" y="2922.27" type="priority"/>
    <node id="10839457934" x="1386.79" y="2951.07" type="priority"/>
    <node id="10839457936" x="1419.30" y="2960.60" type="priority"/>
    <node id="10936505649" x="1296.03" y="2767.52" type="priority"/>
    <node id="10936505658" x="1317.25" y="2600.59" type="priority"/>
    <node id="10936565310" x="3395.94" y="1776.54" type="priority"/>
    <node id="10936565311" x="3305.14" y="1768.11" type="right_before_left"/>
    <node id="10937836382" x="2429.61" y="4163.05" type="right_before_left"/>
    <node id="10942461888" x="1773.90" y="3027.12" type="priority"/>
    <node id="10942461889" x="2660.26" y="2716.22" type="priority"/>
    <node id="10942461895" x="2130.89" y="3363.72" type="priority"/>
    <node id="10942461896" x="1739.92" y="3011.00" type="priority"/>
    <node id="10942462424" x="2074.08" y="3200.27" type="right_before_left"/>
    <node id="10942462427" x="2084.86" y="3194.16" type="priority"/>
    <node id="10942462440" x="2239.80" y="3290.13" type="priority"/>
    <node id="10942462451" x="2649.21" y="2691.76" type="priority"/>
    <node id="10942462462" x="2056.97" y="2960.86" type="dead_end"/>
    <node id="10942462474" x="2379.42" y="3346.42" type="dead_end"/>
    <node id="10942462477" x="2044.56" y="2959.20" type="dead_end"/>
    <node id="10944806717" x="1892.91" y="3038.61" type="priority"/>
    <node id="10944806718" x="1841.22" y="3054.89" type="right_before_left"/>
    <node id="10944806734" x="2334.57" y="2973.25" type="priority"/>
    <node id="10944806736" x="1822.19" y="3075.05" type="priority"/>
    <node id="10944806738" x="1883.69" y="3050.06" type="priority"/>
    <node id="10944806743" x="2337.41" y="2951.66" type="priority"/>
    <node id="10944806746" x="1847.09" y="3041.95" type="priority"/>
    <node id="10944806751" x="2183.86" y="2889.14" type="priority"/>
    <node id="11235438021" x="3105.84" y="2871.71" type="priority"/>
    <node id="11235438022" x="3100.12" y="2924.94" type="right_before_left"/>
    <node id="11235438023" x="3117.58" y="2925.01" type="priority"/>
    <node id="11235438026" x="3137.76" y="2899.08" type="right_before_left"/>
    <node id="11235438028" x="3119.87" y="2902.05" type="right_before_left"/>
    <node id="11442892477" x="1581.08" y="3022.14" type="dead_end"/>
    <node id="11492610792" x="1318.73" y="2947.48" type="priority"/>
    <node id="11504401229" x="1584.80" y="556.11" type="priority"/>
    <node id="11510804765" x="908.27" y="2900.47" type="priority"/>
    <node id="11510936199" x="2006.50" y="4508.76" type="priority"/>
    <node id="11510936201" x="2321.70" y="1895.25" type="priority"/>
    <node id="11510936202" x="2359.96" y="1870.41" type="priority"/>
    <node id="11510936208" x="2238.66" y="1951.35" type="priority"/>
    <node id="11510936240" x="1971.41" y="2134.74" type="priority"/>
    <node id="11510936241" x="1897.04" y="2178.88" type="priority"/>
    <node id="11510936249" x="1212.20" y="2648.52" type="priority"/>
    <node id="11510947798" x="3177.41" y="1716.92" type="priority"/>
    <node id="11510947833" x="3434.92" y="1764.58" type="priority"/>
    <node id="11510947855" x="2085.78" y="2048.45" type="priority"/>
    <node id="11526179083" x="2135.81" y="1447.83" type="priority"/>
    <node id="11634481173" x="3088.23" y="1056.88" type="right_before_left"/>
    <node id="11634481178" x="2934.59" y="1260.89" type="priority"/>
    <node id="11634481194" x="2868.74" y="1291.84" type="priority"/>
    <node id="11634481195" x="3226.35" y="1146.68" type="priority"/>
    <node id="11634481204" x="3160.77" y="1144.05" type="right_before_left"/>
    <node id="11634481207" x="3160.68" y="1159.25" type="right_before_left"/>
    <node id="11634481210" x="3160.40" y="1203.65" type="priority"/>
    <node id="11634481211" x="3160.94" y="1116.42" type="right_before_left"/>
    <node id="11634481213" x="3167.34" y="1097.73" type="right_before_left"/>
    <node id="11634481214" x="3263.05" y="1275.37" type="right_before_left"/>
    <node id="11634481218" x="3246.79" y="1184.95" type="priority"/>
    <node id="11634481237" x="3284.01" y="1268.78" type="right_before_left"/>
    <node id="12018562124" x="2639.28" y="2768.77" type="dead_end"/>
    <node id="12018562125" x="2694.25" y="2787.19" type="dead_end"/>
    <node id="12018562129" x="2666.86" y="2722.44" type="dead_end"/>
    <node id="12018562130" x="2652.63" y="2689.79" type="priority"/>
    <node id="12018562134" x="2660.01" y="2760.48" type="dead_end"/>
    <node id="12018562135" x="2671.22" y="2757.51" type="dead_end"/>
    <node id="12018562138" x="2612.46" y="2726.80" type="right_before_left"/>
    <node id="12018562139" x="2605.21" y="2730.85" type="priority"/>
    <node id="12018562142" x="2618.54" y="2762.19" type="right_before_left"/>
    <node id="12018562147" x="2686.33" y="2753.31" type="dead_end"/>
    <node id="12031893395" x="2629.32" y="2733.68" type="dead_end"/>
    <node id="12031893397" x="2599.08" y="2724.72" type="priority"/>
    <node id="12031893399" x="2601.15" y="2728.69" type="dead_end"/>
    <node id="12031893400" x="2602.36" y="2730.94" type="dead_end"/>
    <node id="12031893401" x="2610.84" y="2723.14" type="dead_end"/>
    <node id="12031893402" x="2611.95" y="2725.65" type="dead_end"/>
    <node id="1222774761" x="2600.52" y="739.84" type="priority"/>
    <node id="1222774765" x="3290.30" y="547.13" type="priority"/>
    <node id="1222774784" x="2377.84" y="414.10" type="priority"/>
    <node id="12285754175" x="1332.97" y="3034.36" type="right_before_left"/>
    <node id="12285754176" x="1290.07" y="3015.58" type="right_before_left"/>
    <node id="12334416099" x="1680.21" y="1468.06" type="priority"/>
    <node id="12384564857" x="2297.43" y="1622.48" type="priority"/>
    <node id="12384564858" x="2269.10" y="1639.38" type="right_before_left"/>
    <node id="12384564859" x="2223.31" y="1558.35" type="right_before_left"/>
    <node id="12384564860" x="2283.42" y="1630.83" type="right_before_left"/>
    <node id="12384564861" x="2235.35" y="1544.93" type="right_before_left"/>
    <node id="12384564862" x="2246.13" y="1483.49" type="priority"/>
    <node id="12384564863" x="2335.96" y="1608.69" type="priority"/>
    <node id="12384564865" x="2229.32" y="1548.65" type="right_before_left"/>
    <node id="12384564866" x="2168.04" y="1507.36" type="right_before_left"/>
    <node id="12384564867" x="2237.75" y="1468.35" type="right_before_left"/>
    <node id="12384564874" x="2222.00" y="1544.40" type="right_before_left"/>
    <node id="12384564880" x="2216.48" y="1548.33" type="right_before_left"/>
    <node id="12384564888" x="2217.69" y="1556.06" type="right_before_left"/>
    <node id="12384564893" x="2221.51" y="1539.92" type="right_before_left"/>
    <node id="12384564895" x="2253.22" y="1519.52" type="right_before_left"/>
    <node id="12384565212" x="2140.91" y="1457.69" type="right_before_left"/>
    <node id="12384565213" x="2121.70" y="1467.73" type="priority"/>
    <node id="12384565214" x="2148.63" y="1471.83" type="right_before_left"/>
    <node id="12384565215" x="2130.93" y="1480.61" type="priority"/>
    <node id="12384565216" x="2156.53" y="1486.28" type="right_before_left"/>
    <node id="12384565217" x="2139.01" y="1495.42" type="priority"/>
    <node id="12384565218" x="2164.23" y="1500.37" type="right_before_left"/>
    <node id="12384565219" x="2149.13" y="1508.58" type="priority"/>
    <node id="12384565220" x="2171.70" y="1514.19" type="right_before_left"/>
    <node id="12384565221" x="2159.21" y="1520.51" type="priority"/>
    <node id="12384565222" x="2179.18" y="1528.18" type="right_before_left"/>
    <node id="12384565223" x="2170.56" y="1532.73" type="priority"/>
    <node id="12384565224" x="2209.42" y="1484.21" type="right_before_left"/>
    <node id="12384565225" x="2181.63" y="1499.75" type="right_before_left"/>
    <node id="12384565226" x="2195.57" y="1491.95" type="right_before_left"/>
    <node id="12384565227" x="2222.97" y="1476.62" type="right_before_left"/>
    <node id="12384641083" x="2001.69" y="1139.19" type="priority"/>
    <node id="12384641088" x="1977.63" y="1132.23" type="priority"/>
    <node id="12384641091" x="1987.29" y="1109.41" type="priority"/>
    <node id="12384641097" x="1978.75" y="1116.05" type="priority"/>
    <node id="12384641098" x="2008.45" y="1130.77" type="priority"/>
    <node id="12384641099" x="2018.09" y="1094.93" type="priority"/>
    <node id="12384641100" x="1994.82" y="1141.46" type="priority"/>
    <node id="12384666201" x="1988.39" y="1140.97" type="priority"/>
    <node id="12384666203" x="2029.55" y="1082.04" type="priority"/>
    <node id="12384666204" x="2050.96" y="1085.59" type="priority"/>
    <node id="12384666209" x="2015.12" y="1089.80" type="priority"/>
    <node id="12384666210" x="1994.22" y="1156.30" type="priority"/>
    <node id="12384666217" x="2013.13" y="1091.43" type="priority"/>
    <node id="12384666220" x="2035.76" y="1200.43" type="right_before_left"/>
    <node id="12384666222" x="2008.50" y="1220.19" type="right_before_left"/>
    <node id="12384666225" x="1941.82" y="1180.46" type="priority"/>
    <node id="12390308736" x="1366.65" y="2954.65" type="priority"/>
    <node id="12390308742" x="1583.52" y="1625.34" type="priority"/>
    <node id="12390308745" x="1365.13" y="1370.58" type="priority"/>
    <node id="12390642059" x="4130.92" y="3893.85" type="priority"/>
    <node id="12390642063" x="3287.57" y="2627.75" type="priority"/>
    <node id="12390642064" x="3168.03" y="2615.19" type="priority"/>
    <node id="12390642067" x="2638.37" y="2698.60" type="priority"/>
    <node id="1239117051-AddedOnRampNode" x="1889.12" y="2191.56" type="priority"/>
    <node id="12698229029" x="2202.59" y="1362.56" type="priority"/>
    <node id="12698229030" x="2189.50" y="1369.73" type="right_before_left"/>
    <node id="12698229032" x="2212.66" y="1412.21" type="right_before_left"/>
    <node id="12698229034" x="2225.48" y="1404.73" type="priority"/>
    <node id="12698229035" x="2301.22" y="1628.64" type="right_before_left"/>
    <node id="12698229036" x="2272.29" y="1645.27" type="right_before_left"/>
    <node id="12698229052" x="2254.72" y="1484.15" type="dead_end"/>
    <node id="12698229055" x="2300.47" y="1473.73" type="priority"/>
    <node id="12698229056" x="2304.21" y="1482.90" type="priority"/>
    <node id="12698229059" x="2313.43" y="1466.48" type="priority"/>
    <node id="12698229060" x="2257.23" y="1506.03" type="priority"/>
    <node id="1283675910" x="2677.23" y="2780.45" type="dead_end"/>
    <node id="1283683885" x="2665.10" y="2733.60" type="dead_end"/>
    <node id="1283698611" x="2656.70" y="2747.47" type="dead_end"/>
    <node id="1283742393" x="2663.17" y="2772.95" type="dead_end"/>
    <node id="131830494" x="1000.92" y="2771.83" type="priority"/>
    <node id="131830501" x="1000.47" y="2711.23" type="dead_end"/>
    <node id="131830504" x="1012.66" y="2743.60" type="dead_end"/>
    <node id="131830868" x="1460.84" y="2954.59" type="priority"/>
    <node id="131830869" x="1562.30" y="2996.86" type="priority"/>
    <node id="131830870" x="1577.05" y="3001.26" type="priority"/>
    <node id="131867391" x="1581.29" y="3025.77" type="right_before_left"/>
    <node id="131867396" x="1478.82" y="3199.02" type="right_before_left"/>
    <node id="131867399" x="1528.50" y="3227.86" type="right_before_left"/>
    <node id="1663572576" x="3166.66" y="2215.22" type="priority"/>
    <node id="1663572582" x="3002.69" y="1963.19" type="priority"/>
    <node id="1663572590" x="2741.14" y="1829.54" type="priority"/>
    <node id="1663572633" x="2992.45" y="2048.40" type="priority"/>
    <node id="1663572641" x="3236.92" y="2193.26" type="priority"/>
    <node id="1663572648" x="3175.48" y="2172.85" type="priority"/>
    <node id="1663572666" x="3351.52" y="2342.51" type="priority"/>
    <node id="1663572674" x="3176.29" y="2206.54" type="priority"/>
    <node id="1663572680" x="3115.48" y="2216.06" type="priority"/>
    <node id="1663572697" x="3231.21" y="2312.74" type="priority"/>
    <node id="1663572701" x="3466.05" y="1815.66" type="priority"/>
    <node id="1663572705" x="3310.84" y="1770.24" type="priority"/>
    <node id="1663572707" x="3239.22" y="2298.83" type="priority"/>
    <node id="1663572709" x="3011.99" y="1863.57" type="priority"/>
    <node id="1663572713" x="3340.95" y="2297.38" type="priority"/>
    <node id="1663572714" x="3395.16" y="2021.81" type="priority"/>
    <node id="1663572719" x="2851.36" y="1892.89" type="priority"/>
    <node id="1663572725" x="3315.15" y="2329.54" type="priority"/>
    <node id="1663572730" x="3249.04" y="2271.04" type="priority"/>
    <node id="1663572732" x="3446.10" y="2128.61" type="right_before_left"/>
    <node id="1663572742" x="2952.83" y="2056.75" type="priority"/>
    <node id="1663572766" x="2979.65" y="1984.42" type="priority"/>
    <node id="1663572768" x="3028.31" y="2040.66" type="priority"/>
    <node id="1663572771" x="3336.14" y="2337.03" type="priority"/>
    <node id="1663572779" x="3386.90" y="2257.01" type="priority"/>
    <node id="1663572789" x="3253.74" y="2227.33" type="priority"/>
    <node id="1663572804" x="2974.43" y="2052.29" type="priority"/>
    <node id="1663572827" x="3147.33" y="1827.60" type="priority"/>
    <node id="1663572830" x="3021.23" y="1979.26" type="priority"/>
    <node id="1663572887" x="2995.72" y="1955.35" type="priority"/>
    <node id="1663572894" x="3399.33" y="2104.48" type="priority"/>
    <node id="1663572898" x="3001.94" y="2102.33" type="priority"/>
    <node id="1663593013" x="2672.93" y="2493.20" type="priority"/>
    <node id="1663593022" x="2935.23" y="2437.61" type="priority"/>
    <node id="1663593028" x="2949.85" y="2389.88" type="priority"/>
    <node id="1663593051" x="2619.59" y="2463.01" type="right_before_left"/>
    <node id="1663593054" x="2832.61" y="2447.19" type="priority"/>
    <node id="1663593057" x="2755.09" y="2392.66" type="priority"/>
    <node id="1663593059" x="2867.54" y="2673.31" type="priority"/>
    <node id="1663593061" x="2674.04" y="2464.60" type="priority"/>
    <node id="1663593067" x="2750.56" y="2439.97" type="priority"/>
    <node id="1663593089" x="2832.93" y="2408.48" type="priority"/>
    <node id="1663593092" x="2747.61" y="2493.41" type="priority"/>
    <node id="1663593100" x="3086.29" y="2759.82" type="priority"/>
    <node id="1663593112" x="2822.09" y="2570.17" type="priority"/>
    <node id="1663593121" x="2596.93" y="2502.59" type="priority"/>
    <node id="1663593123" x="2840.56" y="2599.55" type="priority"/>
    <node id="1663593126" x="2831.99" y="2466.21" type="priority"/>
    <node id="1663593129" x="2750.92" y="2493.19" type="priority"/>
    <node id="1663593156" x="2966.52" y="2630.46" type="priority"/>
    <node id="1663593188" x="2870.92" y="2551.70" type="priority"/>
    <node id="1663593193" x="2755.16" y="2578.58" type="priority"/>
    <node id="1663593196" x="2547.66" y="2448.52" type="priority"/>
    <node id="1663593204" x="2671.37" y="2533.66" type="priority"/>
    <node id="1663593216" x="3068.79" y="2467.27" type="priority"/>
    <node id="1663593219" x="2931.94" y="2509.96" type="priority"/>
    <node id="1663593224" x="2914.99" y="2650.05" type="priority"/>
    <node id="1663642147" x="3134.32" y="2238.31" type="priority"/>
    <node id="1663642153" x="1652.41" y="1175.12" type="priority"/>
    <node id="1663642157" x="3272.26" y="2545.84" type="right_before_left"/>
    <node id="1663642161" x="3182.47" y="2272.64" type="priority"/>
    <node id="1663642168" x="2944.02" y="2277.44" type="priority"/>
    <node id="1663642174" x="2941.56" y="2179.92" type="priority"/>
    <node id="1663642177" x="2865.24" y="2223.33" type="priority"/>
    <node id="1663642179" x="2831.75" y="2171.79" type="priority"/>
    <node id="1663642187" x="2909.33" y="2023.87" type="priority"/>
    <node id="1663642190" x="2786.83" y="2068.60" type="priority"/>
    <node id="1663642191" x="3103.32" y="2298.51" type="priority"/>
    <node id="1663642193" x="2972.63" y="2131.49" type="priority"/>
    <node id="1663642195" x="2925.33" y="2119.65" type="priority"/>
    <node id="1663642204" x="3315.10" y="2910.36" type="priority"/>
    <node id="1663642213" x="3125.88" y="2322.31" type="priority"/>
    <node id="1663642233" x="2862.50" y="2143.15" type="priority"/>
    <node id="1663642244" x="2012.15" y="1467.54" type="priority"/>
    <node id="1663642246" x="2019.73" y="1476.62" type="priority"/>
    <node id="1663672742" x="3351.83" y="3348.33" type="dead_end"/>
    <node id="1663672756" x="3036.97" y="2508.05" type="priority"/>
    <node id="1663672763" x="3387.46" y="2511.43" type="priority"/>
    <node id="1663672790" x="2992.10" y="2527.45" type="priority"/>
    <node id="1675788400" x="2010.90" y="3446.29" type="priority"/>
    <node id="1675788405" x="1855.63" y="3259.27" type="priority"/>
    <node id="1675788408" x="2216.95" y="3416.36" type="priority"/>
    <node id="1675788409" x="1544.68" y="3025.67" type="priority"/>
    <node id="1675788417" x="1928.41" y="3153.33" type="priority"/>
    <node id="1675788420" x="1528.19" y="3343.30" type="right_before_left"/>
    <node id="1675788423" x="2222.48" y="3436.36" type="priority"/>
    <node id="1675788424" x="1825.86" y="3249.78" type="priority"/>
    <node id="1675788426" x="1557.74" y="3417.09" type="priority"/>
    <node id="1675788427" x="1554.61" y="3305.65" type="right_before_left"/>
    <node id="1687073868" x="3368.25" y="3234.14" type="dead_end"/>
    <node id="1687073876" x="1301.12" y="3143.11" type="priority"/>
    <node id="1687073879" x="1364.82" y="3274.18" type="priority"/>
    <node id="1687073883" x="3301.00" y="3126.73" type="dead_end"/>
    <node id="1687073884" x="3232.64" y="3235.10" type="dead_end"/>
    <node id="1687073885" x="3220.72" y="3210.07" type="dead_end"/>
    <node id="1687073890" x="3374.62" y="3268.38" type="dead_end"/>
    <node id="1687073891" x="1362.53" y="3228.82" type="right_before_left"/>
    <node id="1687073905" x="1343.67" y="3215.49" type="right_before_left"/>
    <node id="1687073907" x="3250.16" y="3270.96" type="dead_end"/>
    <node id="1687073910" x="3340.12" y="3192.59" type="dead_end"/>
    <node id="1687073911" x="3399.20" y="3264.25" type="dead_end"/>
    <node id="1687073912" x="3174.66" y="3260.53" type="dead_end"/>
    <node id="1687073915" x="1396.44" y="3253.07" type="priority"/>
    <node id="1687073917" x="1332.65" y="3250.18" type="priority"/>
    <node id="1687073928" x="3237.69" y="3245.27" type="dead_end"/>
    <node id="1687073932" x="3352.06" y="3324.24" type="dead_end"/>
    <node id="1687073937" x="1363.13" y="3187.49" type="right_before_left"/>
    <node id="1687073938" x="1338.17" y="3254.94" type="priority"/>
    <node id="1687073940" x="1266.57" y="3192.72" type="priority"/>
    <node id="1687073948" x="3324.28" y="3194.90" type="dead_end"/>
    <node id="1687073949" x="3319.75" y="3156.42" type="dead_end"/>
    <node id="1687073951" x="1282.33" y="3172.16" type="right_before_left"/>
    <node id="1687073955" x="1404.28" y="3225.18" type="right_before_left"/>
    <node id="1687073956" x="1633.85" y="3090.66" type="priority"/>
    <node id="1687073957" x="3178.92" y="3220.55" type="dead_end"/>
    <node id="1687073961" x="3181.40" y="3278.87" type="dead_end"/>
    <node id="1687073962" x="3228.56" y="3226.87" type="dead_end"/>
    <node id="1687073964" x="3406.52" y="3314.79" type="dead_end"/>
    <node id="1687073965" x="1665.39" y="3026.78" type="priority"/>
    <node id="1687073966" x="1372.67" y="3193.75" type="right_before_left"/>
    <node id="1687073968" x="1389.49" y="3247.86" type="right_before_left"/>
    <node id="1687073971" x="3384.99" y="3318.53" type="dead_end"/>
    <node id="1687073978" x="1301.57" y="3147.07" type="right_before_left"/>
    <node id="1687124670" x="1956.60" y="4637.56" type="priority"/>
    <node id="1687124677" x="2074.11" y="4212.96" type="priority"/>
    <node id="1687124690" x="2136.89" y="3926.31" type="priority"/>
    <node id="1687124696" x="2604.61" y="3316.82" type="priority"/>
    <node id="1687124698" x="2026.17" y="4836.55" type="priority"/>
    <node id="1687124699" x="1990.30" y="4138.46" type="priority"/>
    <node id="1687124701" x="2118.23" y="4370.38" type="priority"/>
    <node id="1687124708" x="2132.72" y="3951.23" type="priority"/>
    <node id="1687124711" x="2956.67" y="3262.20" type="priority"/>
    <node id="1687124723" x="2490.93" y="3548.92" type="right_before_left"/>
    <node id="1687124735" x="2090.76" y="3901.21" type="priority"/>
    <node id="1687124739" x="2180.25" y="4294.14" type="priority"/>
    <node id="1687124743" x="2146.21" y="3567.22" type="right_before_left"/>
    <node id="1687124747" x="2131.95" y="4124.86" type="priority"/>
    <node id="1687124760" x="2120.89" y="3466.97" type="priority"/>
    <node id="1687124785" x="2953.57" y="3281.41" type="priority"/>
    <node id="1687124805" x="2174.92" y="3680.93" type="right_before_left"/>
    <node id="1687124809" x="2215.84" y="3970.46" type="priority"/>
    <node id="1687124813" x="2616.72" y="3349.29" type="priority"/>
    <node id="1687124829" x="2476.36" y="3578.85" type="priority"/>
    <node id="1687165238" x="1794.63" y="3093.37" type="priority"/>
    <node id="1687165247" x="1772.17" y="3127.43" type="priority"/>
    <node id="1687165249" x="1653.13" y="3292.31" type="priority"/>
    <node id="1687165253" x="1682.44" y="3200.80" type="priority"/>
    <node id="1687165255" x="1938.94" y="3072.74" type="priority"/>
    <node id="1687165258" x="1872.98" y="3044.28" type="priority"/>
    <node id="1687165259" x="1754.83" y="3248.98" type="priority"/>
    <node id="1687165260" x="1911.57" y="3088.68" type="priority"/>
    <node id="1687165261" x="1762.14" y="3171.44" type="priority"/>
    <node id="1687165265" x="1751.43" y="3253.09" type="priority"/>
    <node id="1687165273" x="1870.88" y="3098.36" type="priority"/>
    <node id="1687165275" x="1793.39" y="3198.74" type="priority"/>
    <node id="1687165279" x="1811.32" y="3152.21" type="priority"/>
    <node id="1687165284" x="1842.03" y="3036.59" type="priority"/>
    <node id="1687165286" x="1710.10" y="3226.97" type="priority"/>
    <node id="1687165289" x="1764.00" y="3120.45" type="priority"/>
    <node id="1687165292" x="1756.05" y="3166.10" type="priority"/>
    <node id="1687165293" x="1829.55" y="3130.33" type="priority"/>
    <node id="1687165295" x="1821.73" y="3160.40" type="priority"/>
    <node id="1687165297" x="1942.49" y="3002.54" type="priority"/>
    <node id="1687165299" x="1778.95" y="3187.65" type="priority"/>
    <node id="1687172869" x="1977.72" y="3094.64" type="priority"/>