<?xml version="1.0" encoding="UTF-8"?>

<!-- generated on 2025-02-05 23:22:34 by Eclipse SUMO netconvert Version 1.19.0
<configuration xmlns:xsi="http://www.w3.org/2001/XMLSchema-instance" xsi:noNamespaceSchemaLocation="http://sumo.dlr.de/xsd/netconvertConfiguration.xsd">

    <input>
        <sumo-net-file value="sourdun_small.net.xml"/>
    </input>

    <output>
        <plain-output-prefix value="sourdun_small"/>
    </output>

    <processing>
        <geometry.min-radius.fix.railways value="false"/>
        <geometry.max-grade.fix value="false"/>
        <offset.disable-normalization value="true"/>
        <lefthand value="0"/>
    </processing>

    <junctions>
        <no-turnarounds value="true"/>
        <junctions.corner-detail value="5"/>
        <junctions.limit-turn-speed value="5.50"/>
        <rectangular-lane-cut value="0"/>
    </junctions>

    <pedestrian>
        <walkingareas value="0"/>
    </pedestrian>

</configuration>
-->

<edges version="1.16" xmlns:xsi="http://www.w3.org/2001/XMLSchema-instance" xsi:noNamespaceSchemaLocation="http://sumo.dlr.de/xsd/edges_file.xsd">
    <location netOffset="0.00,0.00" convBoundary="507567.08,5385437.24,514322.35,5391347.32" origBoundary="3.102714,48.621841,3.194347,48.675043" projParameter="+proj=utm +zone=31 +ellps=WGS84 +datum=WGS84 +units=m +no_defs"/>

    <edge id="-1028340992" from="9480676013" to="9480815518" priority="3" type="highway.residential" numLanes="1" speed="13.89" shape="509059.17,5390129.67 509154.87,5390062.25 509160.41,5390060.78 509165.04,5390061.39 509170.57,5390065.14 509192.34,5390100.32" disallow="tram rail_urban rail rail_electric rail_fast ship"/>
    <edge id="-1028341543" from="8875588821" to="2277010021" priority="1" type="highway.track" numLanes="1" speed="5.56" shape="510670.23,5390613.82 510672.87,5390634.31 510672.24,5390659.91 510653.18,5390813.65 510618.41,5391132.95 510617.60,5391144.56 510620.16,5391150.86 510632.00,5391156.20 510828.08,5391254.42 510830.26,5391255.17" allow="pedestrian motorcycle moped bicycle"/>
    <edge id="-1028341546#0" from="9480787903" to="9480787905" priority="1" type="highway.service" numLanes="1" speed="5.56" shape="509688.68,5390486.62 509684.34,5390483.86 509651.39,5390486.93" allow="pedestrian delivery bicycle"/>
    <edge id="-1028341546#1" from="9480787899" to="9480787903" priority="1" type="highway.service" numLanes="1" speed="5.56" shape="509669.75,5390606.89 509676.08,5390581.12 509680.66,5390557.88 509682.67,5390537.61 509688.68,5390486.62" allow="pedestrian delivery bicycle"/>
    <edge id="-1028341547" from="9480787914" to="9480787903" priority="1" type="highway.track" numLanes="1" speed="5.56" shape="509698.10,5390295.63 509694.66,5390344.46 509695.74,5390402.75 509706.34,5390438.61 509705.53,5390449.23 509701.74,5390472.27 509692.04,5390485.05 509688.68,5390486.62" allow="pedestrian motorcycle moped bicycle"/>
    <edge id="-1028341548" from="9480787914" to="9480787916" priority="1" type="highway.service" numLanes="1" speed="5.56" allow="pedestrian delivery bicycle"/>
    <edge id="-1028341549#0" from="9480787916" to="9480820218" priority="1" type="highway.service" numLanes="1" speed="5.56" shape="509700.16,5390243.46 509684.59,5390222.94 509677.49,5390198.66" allow="pedestrian delivery bicycle"/>
    <edge id="-1028341549#1" from="9480787915" to="9480787916" priority="1" type="highway.service" numLanes="1" speed="5.56" allow="pedestrian delivery bicycle"/>
    <edge id="-1028341558" from="9480820259" to="9480820261" priority="1" type="highway.service" numLanes="1" speed="5.56" shape="509010.27,5390207.94 509011.88,5390186.78 509030.16,5390175.34" allow="pedestrian delivery bicycle"/>
    <edge id="-1059906015" from="9738012151" to="9738012152" priority="3" type="highway.residential" numLanes="1" speed="13.89" disallow="tram rail_urban rail rail_electric rail_fast ship"/>
    <edge id="-1059906018#0" from="9738012161" to="10126272217" priority="3" type="highway.residential" numLanes="1" speed="13.89" shape="509246.07,5390295.91 509237.68,5390390.26 509245.03,5390403.36" disallow="tram rail_urban rail rail_electric rail_fast ship"/>
    <edge id="-1059906018#1" from="9738012159" to="9738012161" priority="3" type="highway.residential" numLanes="1" speed="13.89" disallow="tram rail_urban rail rail_electric rail_fast ship"/>
    <edge id="-1059906019" from="9738012161" to="9738012167" priority="3" type="highway.residential" numLanes="1" speed="13.89" shape="509246.07,5390295.91 509183.24,5390292.01 509175.34,5390290.03 509167.13,5390285.97 509161.53,5390280.36 509142.85,5390230.51 509135.36,5390219.86 509123.24,5390212.71" disallow="tram rail_urban rail rail_electric rail_fast ship"/>
    <edge id="-1239101236" from="1508836656" to="1508836652" priority="10" type="highway.tertiary" numLanes="1" speed="22.22" disallow="tram rail_urban rail rail_electric rail_fast ship"/>
    <edge id="-1239101237" from="416745108" to="416745107" priority="11" type="highway.secondary" numLanes="1" speed="27.78" shape="509380.34,5390230.87 509388.30,5390232.29 509403.16,5390232.56 509417.47,5390232.86 509445.44,5390232.65" disallow="tram rail_urban rail rail_electric rail_fast ship">
        <param key="ref" value="D 215"/>
    </edge>
    <edge id="-137380897#0" from="1507165677" to="1241043797" priority="10" type="highway.tertiary" numLanes="1" speed="22.22" shape="512078.74,5389900.18 512305.61,5389905.65 512406.93,5389912.39 512476.17,5389919.67" disallow="tram rail_urban rail rail_electric rail_fast ship">
        <param key="ref" value="D 90"/>
    </edge>
    <edge id="-137380897#1" from="8875588860" to="1507165677" priority="10" type="highway.tertiary" numLanes="1" speed="22.22" shape="511912.97,5389911.63 511926.12,5389913.04 511938.17,5389912.14 512014.33,5389903.68 512078.74,5389900.18" disallow="tram rail_urban rail rail_electric rail_fast ship">
        <param key="ref" value="D 90"/>
    </edge>
    <edge id="-137380897#2" from="1507165672" to="8875588860" priority="10" type="highway.tertiary" numLanes="1" speed="22.22" shape="511805.94,5389832.93 511876.30,5389890.36 511896.65,5389904.77 511912.97,5389911.63" disallow="tram rail_urban rail rail_electric rail_fast ship">
        <param key="ref" value="D 90"/>
    </edge>
    <edge id="-137380897#3" from="1507165665" to="1507165672" priority="10" type="highway.tertiary" numLanes="1" speed="22.22" shape="511002.54,5389178.82 511179.67,5389323.74 511382.21,5389486.92 511692.61,5389740.43 511805.94,5389832.93" disallow="tram rail_urban rail rail_electric rail_fast ship">
        <param key="ref" value="D 90"/>
    </edge>
    <edge id="-137380908#0" from="8875588859" to="1507165729" priority="4" type="highway.unclassified" numLanes="1" speed="13.89" shape="512576.99,5390914.45 512587.57,5391039.84 512552.58,5391218.79 512561.60,5391235.65 512732.26,5391347.32" disallow="tram rail_urban rail rail_electric rail_fast ship"/>
    <edge id="-137380908#1" from="1507165695" to="8875588859" priority="4" type="highway.unclassified" numLanes="1" speed="13.89" shape="511850.74,5390260.80 512462.54,5390215.30 512487.25,5390222.75 512524.66,5390256.10 512533.25,5390280.76 512576.74,5390910.45 512576.99,5390914.45" disallow="tram rail_urban rail rail_electric rail_fast ship"/>
    <edge id="-137380908#2" from="1507165686" to="1507165695" priority="4" type="highway.unclassified" numLanes="1" speed="13.89" shape="511848.20,5389935.31 511850.97,5389955.22 511819.92,5390226.65 511822.36,5390243.50 511832.22,5390254.19 511850.74,5390260.80" disallow="tram rail_urban rail rail_electric rail_fast ship"/>
    <edge id="-137380908#3" from="1507165672" to="1507165686" priority="4" type="highway.unclassified" numLanes="1" speed="13.89" shape="511805.94,5389832.93 511807.53,5389848.34 511848.20,5389935.31" disallow="tram rail_urban rail rail_electric rail_fast ship"/>
    <edge id="-137569472" from="1508836463" to="1508836533" priority="1" type="highway.track" numLanes="1" speed="5.56" shape="509619.29,5390043.36 509680.32,5390044.85 509778.92,5390045.71 509819.32,5390045.96 509863.88,5390043.44 509879.07,5390042.61 509889.25,5390049.18 509891.82,5390059.68 509875.41,5390162.95 509875.91,5390175.34" allow="pedestrian motorcycle moped bicycle"/>
    <edge id="-137569479#0" from="1508836639" to="1508836713" priority="10" type="highway.tertiary" numLanes="1" speed="22.22" shape="509073.41,5390343.40 509056.34,5390377.51 509046.89,5390407.92 509041.60,5390436.81 509037.63,5390471.08 509036.20,5390503.27 509036.47,5390523.25 509038.08,5390533.62 509039.99,5390543.72 509048.72,5390574.12 509106.62,5390732.70 509120.05,5390756.64" disallow="tram rail_urban rail rail_electric rail_fast ship">
        <param key="ref" value="D 2b"/>
    </edge>
    <edge id="-137569479#1" from="9738012167" to="1508836639" priority="10" type="highway.tertiary" numLanes="1" speed="22.22" shape="509123.24,5390212.71 509096.52,5390254.26 509090.65,5390264.91 509086.47,5390276.56 509084.18,5390294.35 509083.47,5390311.74 509079.33,5390327.67 509073.41,5390343.40" disallow="tram rail_urban rail rail_electric rail_fast ship">
        <param key="ref" value="D 2b"/>
    </edge>
    <edge id="-137569479#2" from="416745110" to="9738012167" priority="10" type="highway.tertiary" numLanes="1" speed="22.22" shape="509133.18,5390187.68 509131.94,5390192.99 509126.82,5390207.46 509123.24,5390212.71" disallow="tram rail_urban rail rail_electric rail_fast ship">
        <param key="ref" value="D 2b"/>
    </edge>
    <edge id="-137569495" from="1508836478" to="1508836447" priority="3" type="highway.residential" numLanes="1" speed="13.89" disallow="tram rail_urban rail rail_electric rail_fast ship"/>
    <edge id="-137569506#0" from="9480820261" to="1508836530" priority="1" type="highway.service" numLanes="1" speed="5.56" allow="pedestrian delivery bicycle"/>
    <edge id="-137569506#1" from="1508836559" to="9480820261" priority="1" type="highway.service" numLanes="1" speed="5.56" allow="pedestrian delivery bicycle"/>
    <edge id="-137569511" from="1508836457" to="1508836463" priority="3" type="highway.residential" numLanes="1" speed="13.89" disallow="tram rail_urban rail rail_electric rail_fast ship"/>
    <edge id="-137569514" from="1508836484" to="1508836483" priority="3" type="highway.residential" numLanes="1" speed="13.89" disallow="tram rail_urban rail rail_electric rail_fast ship"/>
    <edge id="-137569516" from="2276771132" to="1508835948" priority="4" type="highway.unclassified" numLanes="1" speed="13.89" shape="509268.43,5389833.54 509239.41,5389776.03 509137.35,5389569.09 509057.48,5389410.20 509046.98,5389383.84 509042.54,5389356.28 509043.12,5389204.24 509038.18,5389167.21 509008.02,5389019.76 508947.46,5388766.18 508928.24,5388688.32 508923.11,5388653.17 508911.61,5388502.13 508903.78,5388427.55 508893.40,5388333.16 508888.45,5388141.53 508881.78,5388023.38" disallow="tram rail_urban rail rail_electric rail_fast ship"/>
    <edge id="-137569519" from="1508836576" to="1508836512" priority="3" type="highway.residential" numLanes="1" speed="13.89" shape="509327.08,5390221.24 509327.90,5390217.13 509333.18,5390190.43 509320.13,5390149.44" disallow="tram rail_urban rail rail_electric rail_fast ship"/>
    <edge id="-137569532#0" from="1508836530" to="1508836506" priority="3" type="highway.residential" numLanes="1" speed="13.89" disallow="tram rail_urban rail rail_electric rail_fast ship"/>
    <edge id="-137569532#1" from="1508836532" to="1508836530" priority="3" type="highway.residential" numLanes="1" speed="13.89" disallow="tram rail_urban rail rail_electric rail_fast ship"/>
    <edge id="-137569542" from="1508836516" to="1508836457" priority="3" type="highway.residential" numLanes="1" speed="13.89" shape="509533.83,5390155.06 509541.32,5390146.53 509523.34,5390058.87 509523.19,5390041.83" disallow="tram rail_urban rail rail_electric rail_fast ship"/>
    <edge id="-137569544" from="1508836516" to="416745106" priority="3" type="highway.residential" numLanes="1" speed="13.89" shape="509533.83,5390155.06 509514.59,5390187.85 509511.36,5390197.45 509510.07,5390209.22 509510.03,5390213.53" disallow="tram rail_urban rail rail_electric rail_fast ship"/>
    <edge id="-137569574" from="1508836554" to="1508836485" priority="4" type="highway.unclassified" numLanes="1" speed="13.89" shape="510183.67,5390197.88 510203.43,5390190.74 510292.77,5390149.58 510328.73,5390127.78 510374.55,5390095.51" disallow="tram rail_urban rail rail_electric rail_fast ship"/>
    <edge id="-137569586#0" from="1508835984" to="1508835508" priority="10" type="highway.tertiary" numLanes="1" speed="22.22" shape="509516.92,5388111.14 509486.49,5388101.86 509319.75,5388010.74 509077.52,5387879.92 508955.84,5387813.61 508943.45,5387805.04 508937.83,5387793.57 508935.89,5387742.91 508934.86,5387727.13 508932.04,5387711.71 508926.97,5387696.19 508923.98,5387689.62 508916.63,5387678.60 508906.68,5387668.22 508824.03,5387591.45 508753.96,5387541.64 508742.70,5387530.38 508723.67,5387484.35 508717.20,5387476.17 508705.94,5387468.64 508694.67,5387463.35 508679.84,5387459.91 508660.54,5387457.66 508613.34,5387458.34 508539.14,5387462.54 508493.30,5387463.16 508431.02,5387460.15 508409.29,5387458.75 508390.43,5387455.39 508371.46,5387449.02 508333.65,5387431.58 508318.61,5387422.92 508303.07,5387410.32 508298.98,5387404.73 508217.96,5387300.20 508194.08,5387281.72 508173.57,5387273.82 507947.13,5387255.51 507567.08,5387223.97" disallow="tram rail_urban rail rail_electric rail_fast ship">
        <param key="ref" value="D 90"/>
    </edge>
    <edge id="-137569586#1" from="1508836203" to="1508835984" priority="10" type="highway.tertiary" numLanes="1" speed="22.22" shape="510834.28,5388765.58 510754.48,5388636.37 510727.25,5388605.74 510599.59,5388499.14 510487.69,5388408.09 510409.56,5388344.32 510388.15,5388334.39 510365.15,5388333.00 510331.54,5388336.98 510296.80,5388340.29 510270.19,5388337.99 510242.93,5388328.95 510211.61,5388310.68 510169.26,5388288.79 509892.28,5388185.98 509845.85,5388169.72 509618.59,5388129.07 509516.92,5388111.14" disallow="tram rail_urban rail rail_electric rail_fast ship">
        <param key="ref" value="D 90"/>
    </edge>
    <edge id="-137569586#2" from="1508836280" to="1508836203" priority="10" type="highway.tertiary" numLanes="1" speed="22.22" shape="510983.44,5389154.20 510936.05,5388961.38 510928.00,5388928.31 510916.55,5388899.29 510834.28,5388765.58" disallow="tram rail_urban rail rail_electric rail_fast ship">
        <param key="ref" value="D 90"/>
    </edge>
    <edge id="-137569586#3" from="1507165665" to="1508836280" priority="10" type="highway.tertiary" numLanes="1" speed="22.22" shape="511002.54,5389178.82 510992.34,5389168.59 510983.44,5389154.20" disallow="tram rail_urban rail rail_electric rail_fast ship">
        <param key="ref" value="D 90"/>
    </edge>
    <edge id="-137569591#0" from="1508836484" to="1508836494" priority="3" type="highway.residential" numLanes="1" speed="13.89" disallow="tram rail_urban rail rail_electric rail_fast ship"/>
    <edge id="-137569591#1" from="1508836478" to="1508836484" priority="3" type="highway.residential" numLanes="1" speed="13.89" shape="509269.70,5390046.91 509270.71,5390059.83 509281.90,5390085.67" disallow="tram rail_urban rail rail_electric rail_fast ship"/>
    <edge id="-137569591#2" from="1508836443" to="1508836478" priority="3" type="highway.residential" numLanes="1" speed="13.89" shape="509353.69,5389986.75 509278.52,5390038.14 509269.70,5390046.91" disallow="tram rail_urban rail rail_electric rail_fast ship"/>
    <edge id="-137569597#0" from="1508836678" to="416745091" priority="3" type="highway.residential" numLanes="1" speed="13.89" shape="509518.20,5390656.06 509528.59,5390596.39 509531.35,5390589.73 509535.84,5390586.52" disallow="tram rail_urban rail rail_electric rail_fast ship"/>
    <edge id="-137569597#1" from="1508836702" to="1508836678" priority="3" type="highway.residential" numLanes="1" speed="13.89" shape="509510.56,5390706.05 509516.39,5390666.44 509518.20,5390656.06" disallow="tram rail_urban rail rail_electric rail_fast ship"/>
    <edge id="-137569597#2" from="1508836709" to="1508836702" priority="3" type="highway.residential" numLanes="1" speed="13.89" disallow="tram rail_urban rail rail_electric rail_fast ship"/>
    <edge id="-137569599" from="1508836639" to="1508836603" priority="3" type="highway.residential" numLanes="1" speed="13.89" shape="509073.41,5390343.40 509030.94,5390336.27 509032.34,5390324.91 509024.60,5390310.96 509027.58,5390282.39 509025.87,5390270.68" disallow="tram rail_urban rail rail_electric rail_fast ship"/>
    <edge id="-137569610" from="1508836702" to="1508836678" priority="1" type="highway.service" numLanes="1" speed="5.56" shape="509510.56,5390706.05 509517.53,5390706.54 509528.93,5390702.78 509533.95,5390697.97 509537.96,5390669.05 509533.14,5390662.85 509518.20,5390656.06" allow="pedestrian delivery bicycle"/>
    <edge id="-137569614#0" from="9738012152" to="1508836535" priority="3" type="highway.residential" numLanes="1" speed="13.89" shape="509878.17,5390199.11 509861.76,5390192.64 509851.51,5390185.77 509850.48,5390182.56" disallow="tram rail_urban rail rail_electric rail_fast ship"/>
    <edge id="-137569614#1" from="416769930" to="9738012152" priority="3" type="highway.residential" numLanes="1" speed="13.89" shape="510179.43,5390213.40 510174.69,5390214.35 510015.86,5390223.80 509978.78,5390225.33 509949.83,5390222.86 509926.62,5390217.74 509878.17,5390199.11" disallow="tram rail_urban rail rail_electric rail_fast ship"/>
    <edge id="-137569616" from="1508836748" to="1508836676" priority="3" type="highway.residential" numLanes="1" speed="13.89" shape="509308.57,5390886.00 509305.61,5390854.06 509302.57,5390811.54 509290.74,5390762.29 509270.16,5390677.73 509257.96,5390621.12 509255.19,5390606.73" disallow="tram rail_urban rail rail_electric rail_fast ship"/>
    <edge id="-137569624#0" from="2276771145" to="416745105" priority="11" type="highway.secondary" numLanes="1" speed="27.78" disallow="tram rail_urban rail rail_electric rail_fast ship">
        <param key="ref" value="D 215a"/>
    </edge>
    <edge id="-137569624#1" from="9480820218" to="2276771145" priority="11" type="highway.secondary" numLanes="1" speed="27.78" shape="509677.49,5390198.66 509647.47,5390201.81 509633.07,5390202.99" disallow="tram rail_urban rail rail_electric rail_fast ship">
        <param key="ref" value="D 215a"/>
    </edge>
    <edge id="-137569624#2" from="1508836535" to="9480820218" priority="11" type="highway.secondary" numLanes="1" speed="27.78" disallow="tram rail_urban rail rail_electric rail_fast ship">
        <param key="ref" value="D 215a"/>
    </edge>
    <edge id="-137569624#3" from="1508836533" to="1508836535" priority="11" type="highway.secondary" numLanes="1" speed="27.78" disallow="tram rail_urban rail rail_electric rail_fast ship">
        <param key="ref" value="D 215a"/>
    </edge>
    <edge id="-137569624#4" from="2276781428" to="1508836533" priority="11" type="highway.secondary" numLanes="1" speed="27.78" shape="509983.79,5390083.51 509898.72,5390159.38 509875.91,5390175.34" disallow="tram rail_urban rail rail_electric rail_fast ship">
        <param key="ref" value="D 215a"/>
    </edge>
    <edge id="-137569624#5" from="1508836432" to="2276781428" priority="11" type="highway.secondary" numLanes="1" speed="27.78" disallow="tram rail_urban rail rail_electric rail_fast ship">
        <param key="ref" value="D 215a"/>
    </edge>
    <edge id="-137569631#0" from="1508836424" to="1508836361" priority="4" type="highway.unclassified" numLanes="1" speed="13.89" shape="509627.65,5389689.06 509662.14,5389576.68 509670.30,5389547.07 509672.77,5389514.36 509666.34,5389440.32" disallow="tram rail_urban rail rail_electric rail_fast ship"/>
    <edge id="-137569631#1" from="1508836457" to="1508836424" priority="4" type="highway.unclassified" numLanes="1" speed="13.89" shape="509523.19,5390041.83 509524.42,5390030.30 509562.81,5389899.16 509616.81,5389724.16 509627.65,5389689.06" disallow="tram rail_urban rail rail_electric rail_fast ship"/>
    <edge id="-148300403#0" from="8875588772" to="1614087289" priority="4" type="highway.unclassified" numLanes="1" speed="13.89" disallow="tram rail_urban rail rail_electric rail_fast ship"/>
    <edge id="-148300403#1" from="1614087297" to="8875588772" priority="4" type="highway.unclassified" numLanes="1" speed="13.89" shape="510482.98,5389639.90 510357.73,5389515.36 510318.54,5389476.72 510251.78,5389439.78" disallow="tram rail_urban rail rail_electric rail_fast ship"/>
    <edge id="-218427776" from="1508836424" to="2276771132" priority="4" type="highway.unclassified" numLanes="1" speed="13.89" disallow="tram rail_urban rail rail_electric rail_fast ship"/>
    <edge id="-218427777" from="1508836463" to="2276771145" priority="1" type="highway.service" numLanes="1" speed="5.56" shape="509619.29,5390043.36 509618.86,5390086.56 509622.34,5390128.57 509633.07,5390202.99" allow="pedestrian delivery bicycle"/>
    <edge id="-218428692" from="2276781414" to="2276781428" priority="1" type="highway.service" numLanes="1" speed="5.56" shape="509966.09,5389988.08 509975.71,5390074.61 509983.79,5390083.51" allow="pedestrian delivery bicycle"/>
    <edge id="-302404071#0" from="1614087297" to="3066613325" priority="12" type="highway.primary" numLanes="1" speed="25.00" shape="510482.98,5389639.90 510398.57,5389715.90 510382.12,5389731.82 510353.52,5389765.13 510341.94,5389780.06 510318.67,5389811.72 510296.06,5389848.90" disallow="tram rail_urban rail rail_electric rail_fast ship">
        <param key="ref" value="D 231"/>
    </edge>
    <edge id="-302404071#1" from="1508836322" to="1614087297" priority="12" type="highway.primary" numLanes="1" speed="25.00" shape="510928.55,5389244.89 510663.02,5389480.52 510482.98,5389639.90" disallow="tram rail_urban rail rail_electric rail_fast ship">
        <param key="ref" value="D 231"/>
    </edge>
    <edge id="-302404071#2" from="1507165665" to="1508836322" priority="12" type="highway.primary" numLanes="1" speed="25.00" disallow="tram rail_urban rail rail_electric rail_fast ship">
        <param key="ref" value="D 231"/>
    </edge>
    <edge id="-302404071#3" from="3410014552" to="1507165665" priority="12" type="highway.primary" numLanes="1" speed="25.00" disallow="tram rail_urban rail rail_electric rail_fast ship">
        <param key="ref" value="D 231"/>
    </edge>
    <edge id="-302404071#4" from="3410014531" to="3410014552" priority="12" type="highway.primary" numLanes="1" speed="25.00" shape="511920.84,5388364.29 511819.70,5388453.71 511754.97,5388511.29" disallow="tram rail_urban rail rail_electric rail_fast ship">
        <param key="ref" value="D 231"/>
    </edge>
    <edge id="-302404071#5" from="416906093" to="3410014531" priority="12" type="highway.primary" numLanes="1" speed="25.00" shape="514322.35,5385437.24 514269.97,5385467.60 514225.53,5385502.62 514195.80,5385533.09 514172.61,5385559.84 514151.58,5385590.53 514132.52,5385624.59 513882.13,5386085.89 513791.20,5386253.95 513690.35,5386440.71 513664.32,5386487.95 513635.16,5386540.87 513577.00,5386648.12 513535.71,5386722.51 513508.15,5386760.27 513486.60,5386784.46 513484.38,5386787.38 513377.17,5386910.30 513197.15,5387113.31 512946.26,5387398.07 512759.28,5387610.31 512712.49,5387660.19 512662.79,5387705.39 512606.62,5387753.26 511920.84,5388364.29" disallow="tram rail_urban rail rail_electric rail_fast ship">
        <param key="ref" value="D 231"/>
    </edge>
    <edge id="-302404106#0" from="1508836506" to="416745110" priority="11" type="highway.secondary" numLanes="1" speed="27.78" shape="509068.16,5390139.99 509077.75,5390150.98 509088.47,5390163.60 509099.83,5390173.70 509112.45,5390181.28 509133.18,5390187.68" disallow="tram rail_urban rail rail_electric rail_fast ship">
        <param key="ref" value="D 215"/>
    </edge>
    <edge id="-302404106#1" from="9480676013" to="1508836506" priority="11" type="highway.secondary" numLanes="1" speed="27.78" disallow="tram rail_urban rail rail_electric rail_fast ship">
        <param key="ref" value="D 215"/>
    </edge>
    <edge id="-302404106#2" from="10126291432" to="9480676013" priority="11" type="highway.secondary" numLanes="1" speed="27.78" shape="507667.76,5389404.23 507908.85,5389490.67 508201.35,5389596.34 508476.76,5389699.19 508530.90,5389719.11 508725.53,5389791.59 508753.91,5389802.61 508766.88,5389808.44 508774.58,5389813.03 508784.05,5389819.69 508791.94,5389826.55 508807.38,5389843.09 508939.38,5389993.81 509059.17,5390129.67" disallow="tram rail_urban rail rail_electric rail_fast ship">
        <param key="ref" value="D 215"/>
    </edge>
    <edge id="-328906826" from="1241043797" to="3357267963" priority="10" type="highway.tertiary" numLanes="1" speed="22.22" disallow="tram rail_urban rail rail_electric rail_fast ship">
        <param key="ref" value="D 90"/>
    </edge>
    <edge id="-328906827" from="3357267963" to="1241043828" priority="10" type="highway.tertiary" numLanes="1" speed="22.22" shape="512490.13,5389920.33 512601.11,5389925.60 512658.44,5389932.14 512749.44,5389942.98 512757.84,5389948.34 512844.15,5390041.50 512883.26,5390084.13 512914.26,5390124.38 512946.67,5390181.09 512947.29,5390202.28 512941.37,5390223.78 512937.32,5390259.62 512932.34,5390309.16 512938.26,5390353.40 512967.86,5390434.73 512984.69,5390469.00 513005.56,5390579.30 513013.97,5390623.55" disallow="tram rail_urban rail rail_electric rail_fast ship">
        <param key="ref" value="D 90"/>
    </edge>
    <edge id="-333944623#0" from="3410014577" to="1508836361" priority="1" type="highway.track" numLanes="1" speed="5.56" shape="509603.43,5388842.72 509629.30,5389050.19 509658.78,5389316.49 509665.05,5389383.36 509666.34,5389440.32" allow="pedestrian motorcycle moped bicycle"/>
    <edge id="-333944623#1" from="1508835984" to="3410014577" priority="1" type="highway.track" numLanes="1" speed="5.56" shape="509516.92,5388111.14 509532.50,5388226.91 509558.46,5388452.64 509561.19,5388491.25 509599.37,5388810.13 509603.43,5388842.72" allow="pedestrian motorcycle moped bicycle"/>
    <edge id="-333944624#0" from="3410014545" to="3410014516" priority="4" type="highway.unclassified" numLanes="1" speed="13.89" shape="511708.75,5388450.51 511705.05,5388445.77 511695.78,5388427.91 511694.35,5388420.25 511693.25,5388414.45 511695.16,5388394.99 511700.76,5388382.95 511715.44,5388362.82 511749.47,5388323.26 511761.80,5388317.03 511804.86,5388287.92 511842.12,5388257.39 511859.36,5388236.58" disallow="tram rail_urban rail rail_electric rail_fast ship"/>
    <edge id="-333944624#1" from="3410014552" to="3410014545" priority="4" type="highway.unclassified" numLanes="1" speed="13.89" disallow="tram rail_urban rail rail_electric rail_fast ship"/>
    <edge id="-333944628" from="1508836203" to="8875588772" priority="1" type="highway.track" numLanes="1" speed="5.56" shape="510834.28,5388765.58 510756.62,5388845.49 510712.20,5388892.81 510676.40,5388924.34 510552.34,5389020.09 510476.67,5389081.50 510444.93,5389110.60 510426.61,5389132.43 510416.42,5389153.07 510411.10,5389176.15 510403.26,5389241.34 510273.42,5389390.53 510273.39,5389406.33 510251.78,5389439.78" allow="pedestrian motorcycle moped bicycle"/>
    <edge id="-333944629" from="3410014579" to="3410014577" priority="1" type="highway.track" numLanes="1" speed="5.56" allow="pedestrian motorcycle moped bicycle"/>
    <edge id="-333944632#0" from="3410014565" to="3410014572" priority="1" type="highway.service" numLanes="1" speed="5.56" allow="pedestrian delivery bicycle"/>
    <edge id="-333944632#1" from="3410014567" to="3410014565" priority="1" type="highway.service" numLanes="1" speed="5.56" allow="pedestrian delivery bicycle"/>
    <edge id="-333944633#0" from="3410014572" to="1508836203" priority="4" type="highway.unclassified" numLanes="1" speed="13.89" shape="510902.63,5388713.65 510900.98,5388715.53 510882.84,5388724.77 510857.23,5388742.79 510834.28,5388765.58" disallow="tram rail_urban rail rail_electric rail_fast ship"/>
    <edge id="-333944633#1" from="3410014516" to="3410014572" priority="4" type="highway.unclassified" numLanes="1" speed="13.89" shape="511859.36,5388236.58 511812.91,5388219.56 511708.20,5388161.17 511604.64,5388103.48 511545.67,5388069.05 511476.26,5388023.95 511460.69,5388022.06 511447.89,5388026.67 511424.58,5388057.68 511391.96,5388096.55 511354.94,5388128.00 511335.59,5388156.46 511313.17,5388210.88 511299.86,5388237.05 511277.70,5388274.09 511260.46,5388294.90 511233.22,5388314.78 511219.48,5388330.75 511193.84,5388365.92 511165.19,5388395.54 511102.56,5388446.63 511046.45,5388494.49 510990.12,5388535.86 510969.16,5388559.70 510934.42,5388610.39 510924.60,5388637.71 510920.35,5388672.70 510915.67,5388693.08 510910.53,5388704.66 510902.63,5388713.65" disallow="tram rail_urban rail rail_electric rail_fast ship"/>
    <edge id="-333944633#2" from="3410014531" to="3410014516" priority="4" type="highway.unclassified" numLanes="1" speed="13.89" shape="511920.84,5388364.29 511881.61,5388264.44 511871.20,5388245.64 511859.36,5388236.58" disallow="tram rail_urban rail rail_electric rail_fast ship"/>
    <edge id="-333944639" from="3410014565" to="3410014545" priority="1" type="highway.track" numLanes="1" speed="5.56" shape="511066.11,5388660.70 511341.96,5388568.54 511431.27,5388538.13 511588.73,5388491.18 511661.06,5388470.94 511695.25,5388460.81 511708.75,5388450.51" allow="pedestrian motorcycle moped bicycle"/>
    <edge id="-35565756#0" from="1508836576" to="416745108" priority="11" type="highway.secondary" numLanes="1" speed="27.78" shape="509327.08,5390221.24 509338.15,5390223.75 509380.34,5390230.87" disallow="tram rail_urban rail rail_electric rail_fast ship">
        <param key="ref" value="D 215"/>
    </edge>