<?xml version="1.0" encoding="UTF-8"?>

<!-- generated on 2025-02-05 23:22:34 by Eclipse SUMO netconvert Version 1.19.0
<configuration xmlns:xsi="http://www.w3.org/2001/XMLSchema-instance" xsi:noNamespaceSchemaLocation="http://sumo.dlr.de/xsd/netconvertConfiguration.xsd">

    <input>
        <sumo-net-file value="sourdun_small.net.xml"/>
    </input>

    <output>
        <plain-output-prefix value="sourdun_small"/>
    </output>

    <processing>
        <geometry.min-radius.fix.railways value="false"/>
        <geometry.max-grade.fix value="false"/>
        <offset.disable-normalization value="true"/>
        <lefthand value="0"/>
    </processing>

    <junctions>
        <no-turnarounds value="true"/>
        <junctions.corner-detail value="5"/>
        <junctions.limit-turn-speed value="5.50"/>
        <rectangular-lane-cut value="0"/>
    </junctions>

    <pedestrian>
        <walkingareas value="0"/>
    </pedestrian>

</configuration>
-->

<connections version="1.16" xmlns:xsi="http://www.w3.org/2001/XMLSchema-instance" xsi:noNamespaceSchemaLocation="http://sumo.dlr.de/xsd/connections_file.xsd">
    <connection from="-1028340992"/>

    <connection from="-1028341543"/>

    <connection from="-1028341546#0" to="-456243826#1" fromLane="0" toLane="0"/>
    <connection from="-1028341546#0" to="456243826#2" fromLane="0" toLane="0"/>

    <connection from="-1028341546#1" to="-1028341546#0" fromLane="0" toLane="0"/>
    <connection from="-1028341546#1" to="1028341547" fromLane="0" toLane="0"/>

    <connection from="-1028341547" to="1028341546#1" fromLane="0" toLane="0"/>
    <connection from="-1028341547" to="-1028341546#0" fromLane="0" toLane="0"/>

    <connection from="-1028341548" to="-1028341549#0" fromLane="0" toLane="0"/>
    <connection from="-1028341548" to="1028341549#1" fromLane="0" toLane="0"/>

    <connection from="-1028341549#0" to="-137569624#1" fromLane="0" toLane="0"/>
    <connection from="-1028341549#0" to="137569624#2" fromLane="0" toLane="0"/>

    <connection from="-1028341549#1" to="1028341548" fromLane="0" toLane="0"/>
    <connection from="-1028341549#1" to="-1028341549#0" fromLane="0" toLane="0"/>

    <connection from="-1028341558" to="-137569506#0" fromLane="0" toLane="0"/>
    <connection from="-1028341558" to="137569506#1" fromLane="0" toLane="0"/>

    <connection from="-1059906015" to="-137569614#0" fromLane="0" toLane="0"/>
    <connection from="-1059906015" to="137569614#1" fromLane="0" toLane="0"/>

    <connection from="-1059906018#0"/>

    <connection from="-1059906018#1" to="-1059906018#0" fromLane="0" toLane="0"/>
    <connection from="-1059906018#1" to="-1059906019" fromLane="0" toLane="0"/>

    <connection from="-1059906019" to="-137569479#1" fromLane="0" toLane="0"/>
    <connection from="-1059906019" to="137569479#2" fromLane="0" toLane="0"/>

    <connection from="-1239101236" to="-444753103" fromLane="0" toLane="0"/>
    <connection from="-1239101236" to="35566243#0" fromLane="0" toLane="0"/>

    <connection from="-1239101237" to="-35565763#4" fromLane="0" toLane="0"/>
    <connection from="-1239101237" to="137569554" fromLane="0" toLane="0"/>

    <connection from="-137380897#0" to="-328906826" fromLane="0" toLane="0"/>

    <connection from="-137380897#1" to="959180913#0" fromLane="0" toLane="0"/>
    <connection from="-137380897#1" to="-137380897#0" fromLane="0" toLane="0"/>

    <connection from="-137380897#2" to="-137380897#1" fromLane="0" toLane="0"/>
    <connection from="-137380897#2" to="-959180956#4" fromLane="0" toLane="0"/>

    <connection from="-137380897#3" to="-137380897#2" fromLane="0" toLane="0"/>
    <connection from="-137380897#3" to="-137380908#3" fromLane="0" toLane="0"/>

    <connection from="-137380908#0"/>

    <connection from="-137380908#1" to="-137380908#0" fromLane="0" toLane="0"/>
    <connection from="-137380908#1" to="-959180936#1" fromLane="0" toLane="0"/>

    <connection from="-137380908#2" to="-137380908#1" fromLane="0" toLane="0"/>
    <connection from="-137380908#2" to="-959180935" fromLane="0" toLane="0"/>

    <connection from="-137380908#3" to="959180956#4" fromLane="0" toLane="0"/>
    <connection from="-137380908#3" to="-137380908#2" fromLane="0" toLane="0"/>
    <connection from="-137380908#3" to="-959180956#3" fromLane="0" toLane="0"/>

    <connection from="-137569472" to="137569624#4" fromLane="0" toLane="0"/>
    <connection from="-137569472" to="-137569624#3" fromLane="0" toLane="0"/>

    <connection from="-137569479#0" to="-444753102#1" fromLane="0" toLane="0"/>

    <connection from="-137569479#1" to="-137569479#0" fromLane="0" toLane="0"/>
    <connection from="-137569479#1" to="-137569599" fromLane="0" toLane="0"/>

    <connection from="-137569479#2" to="1059906019" fromLane="0" toLane="0"/>
    <connection from="-137569479#2" to="-137569479#1" fromLane="0" toLane="0"/>

    <connection from="-137569495"/>

    <connection from="-137569506#0" to="137569532#1" fromLane="0" toLane="0"/>
    <connection from="-137569506#0" to="-137569532#0" fromLane="0" toLane="0"/>

    <connection from="-137569506#1" to="1028341558" fromLane="0" toLane="0"/>
    <connection from="-137569506#1" to="-137569506#0" fromLane="0" toLane="0"/>

    <connection from="-137569511" to="-137569472" fromLane="0" toLane="0"/>
    <connection from="-137569511" to="-218427777" fromLane="0" toLane="0"/>

    <connection from="-137569514"/>

    <connection from="-137569516"/>

    <connection from="-137569519"/>

    <connection from="-137569532#0" to="302404106#1" fromLane="0" toLane="0"/>
    <connection from="-137569532#0" to="-302404106#0" fromLane="0" toLane="0"/>

    <connection from="-137569532#1" to="-137569532#0" fromLane="0" toLane="0"/>
    <connection from="-137569532#1" to="137569506#0" fromLane="0" toLane="0"/>

    <connection from="-137569542" to="-137569631#1" fromLane="0" toLane="0"/>
    <connection from="-137569542" to="-137569511" fromLane="0" toLane="0"/>

    <connection from="-137569544" to="-35565763#1" fromLane="0" toLane="0"/>
    <connection from="-137569544" to="35565763#2" fromLane="0" toLane="0"/>

    <connection from="-137569574" to="959180956#0" fromLane="0" toLane="0"/>

    <connection from="-137569586#0"/>

    <connection from="-137569586#1" to="-333944623#1" fromLane="0" toLane="0"/>
    <connection from="-137569586#1" to="-137569586#0" fromLane="0" toLane="0"/>

    <connection from="-137569586#2" to="-333944628" fromLane="0" toLane="0"/>
    <connection from="-137569586#2" to="-137569586#1" fromLane="0" toLane="0"/>
    <connection from="-137569586#2" to="333944633#0" fromLane="0" toLane="0"/>

    <connection from="-137569586#3" to="-137569586#2" fromLane="0" toLane="0"/>

    <connection from="-137569591#0"/>

    <connection from="-137569591#1" to="-137569514" fromLane="0" toLane="0"/>
    <connection from="-137569591#1" to="-137569591#0" fromLane="0" toLane="0"/>

    <connection from="-137569591#2" to="-137569591#1" fromLane="0" toLane="0"/>
    <connection from="-137569591#2" to="-137569495" fromLane="0" toLane="0"/>

    <connection from="-137569597#0" to="-35566243#1" fromLane="0" toLane="0"/>
    <connection from="-137569597#0" to="35566243#2" fromLane="0" toLane="0"/>

    <connection from="-137569597#1" to="-137569597#0" fromLane="0" toLane="0"/>
    <connection from="-137569597#1" to="137569610" fromLane="0" toLane="0"/>

    <connection from="-137569597#2" to="-137569597#1" fromLane="0" toLane="0"/>
    <connection from="-137569597#2" to="-137569610" fromLane="0" toLane="0"/>

    <connection from="-137569599"/>

    <connection from="-137569610" to="137569597#1" fromLane="0" toLane="0"/>
    <connection from="-137569610" to="-137569597#0" fromLane="0" toLane="0"/>

    <connection from="-137569614#0" to="-137569624#2" fromLane="0" toLane="0"/>
    <connection from="-137569614#0" to="137569624#3" fromLane="0" toLane="0"/>

    <connection from="-137569614#1" to="1059906015" fromLane="0" toLane="0"/>
    <connection from="-137569614#1" to="-137569614#0" fromLane="0" toLane="0"/>

    <connection from="-137569616" to="444753102#1" fromLane="0" toLane="0"/>
    <connection from="-137569616" to="-444753102#0" fromLane="0" toLane="0"/>

    <connection from="-137569624#0" to="-444753099#1" fromLane="0" toLane="0"/>
    <connection from="-137569624#0" to="35565763#0" fromLane="0" toLane="0"/>
    <connection from="-137569624#0" to="-444753098" fromLane="0" toLane="0"/>

    <connection from="-137569624#1" to="-137569624#0" fromLane="0" toLane="0"/>
    <connection from="-137569624#1" to="218427777" fromLane="0" toLane="0"/>

    <connection from="-137569624#2" to="1028341549#0" fromLane="0" toLane="0"/>
    <connection from="-137569624#2" to="-137569624#1" fromLane="0" toLane="0"/>

    <connection from="-137569624#3" to="137569614#0" fromLane="0" toLane="0"/>
    <connection from="-137569624#3" to="-137569624#2" fromLane="0" toLane="0"/>

    <connection from="-137569624#4" to="-137569624#3" fromLane="0" toLane="0"/>
    <connection from="-137569624#4" to="137569472" fromLane="0" toLane="0"/>

    <connection from="-137569624#5" to="-137569624#4" fromLane="0" toLane="0"/>
    <connection from="-137569624#5" to="218428692" fromLane="0" toLane="0"/>

    <connection from="-137569631#0" to="333944623#0" fromLane="0" toLane="0"/>

    <connection from="-137569631#1" to="-218427776" fromLane="0" toLane="0"/>
    <connection from="-137569631#1" to="-137569631#0" fromLane="0" toLane="0"/>

    <connection from="-148300403#0"/>

    <connection from="-148300403#1" to="-148300403#0" fromLane="0" toLane="0"/>
    <connection from="-148300403#1" to="333944628" fromLane="0" toLane="0"/>

    <connection from="-218427776" to="444753100#0" fromLane="0" toLane="0"/>
    <connection from="-218427776" to="-137569516" fromLane="0" toLane="0"/>

    <connection from="-218427777" to="137569624#1" fromLane="0" toLane="0"/>
    <connection from="-218427777" to="-137569624#0" fromLane="0" toLane="0"/>

    <connection from="-218428692" to="137569624#5" fromLane="0" toLane="0"/>
    <connection from="-218428692" to="-137569624#4" fromLane="0" toLane="0"/>

    <connection from="-302404071#0" to="-710479698" fromLane="0" toLane="0"/>

    <connection from="-302404071#1" to="-302404071#0" fromLane="0" toLane="0"/>
    <connection from="-302404071#1" to="-148300403#1" fromLane="0" toLane="0"/>

    <connection from="-302404071#2" to="-302404071#1" fromLane="0" toLane="0"/>
    <connection from="-302404071#2" to="137569623" fromLane="0" toLane="0"/>

    <connection from="-302404071#3" to="-137380897#3" fromLane="0" toLane="0"/>
    <connection from="-302404071#3" to="-302404071#2" fromLane="0" toLane="0"/>
    <connection from="-302404071#3" to="-137569586#3" fromLane="0" toLane="0"/>

    <connection from="-302404071#4" to="-302404071#3" fromLane="0" toLane="0"/>
    <connection from="-302404071#4" to="-333944624#1" fromLane="0" toLane="0"/>

    <connection from="-302404071#5" to="-302404071#4" fromLane="0" toLane="0"/>
    <connection from="-302404071#5" to="-333944633#2" fromLane="0" toLane="0"/>

    <connection from="-302404106#0" to="-35565756#1" fromLane="0" toLane="0"/>
    <connection from="-302404106#0" to="-137569479#2" fromLane="0" toLane="0"/>

    <connection from="-302404106#1" to="-302404106#0" fromLane="0" toLane="0"/>
    <connection from="-302404106#1" to="137569532#0" fromLane="0" toLane="0"/>

    <connection from="-302404106#2" to="-1028340992" fromLane="0" toLane="0"/>
    <connection from="-302404106#2" to="-302404106#1" fromLane="0" toLane="0"/>

    <connection from="-328906826" to="-328906827" fromLane="0" toLane="0"/>

    <connection from="-328906827"/>

    <connection from="-333944623#0" to="137569631#0" fromLane="0" toLane="0"/>

    <connection from="-333944623#1" to="-333944623#0" fromLane="0" toLane="0"/>
    <connection from="-333944623#1" to="333944629" fromLane="0" toLane="0"/>

    <connection from="-333944624#0" to="-333944633#1" fromLane="0" toLane="0"/>
    <connection from="-333944624#0" to="333944633#2" fromLane="0" toLane="0"/>

    <connection from="-333944624#1" to="333944639" fromLane="0" toLane="0"/>
    <connection from="-333944624#1" to="-333944624#0" fromLane="0" toLane="0"/>

    <connection from="-333944628" to="148300403#1" fromLane="0" toLane="0"/>
    <connection from="-333944628" to="-148300403#0" fromLane="0" toLane="0"/>

    <connection from="-333944629" to="333944623#1" fromLane="0" toLane="0"/>
    <connection from="-333944629" to="-333944623#0" fromLane="0" toLane="0"/>

    <connection from="-333944632#0" to="-333944633#0" fromLane="0" toLane="0"/>
    <connection from="-333944632#0" to="333944633#1" fromLane="0" toLane="0"/>

    <connection from="-333944632#1" to="-333944632#0" fromLane="0" toLane="0"/>
    <connection from="-333944632#1" to="-333944639" fromLane="0" toLane="0"/>

    <connection from="-333944633#0" to="137569586#2" fromLane="0" toLane="0"/>
    <connection from="-333944633#0" to="-333944628" fromLane="0" toLane="0"/>
    <connection from="-333944633#0" to="-137569586#1" fromLane="0" toLane="0"/>

    <connection from="-333944633#1" to="333944632#0" fromLane="0" toLane="0"/>
    <connection from="-333944633#1" to="-333944633#0" fromLane="0" toLane="0"/>

    <connection from="-333944633#2" to="333944624#0" fromLane="0" toLane="0"/>
    <connection from="-333944633#2" to="-333944633#1" fromLane="0" toLane="0"/>

    <connection from="-333944639" to="-333944624#0" fromLane="0" toLane="0"/>
    <connection from="-333944639" to="333944624#1" fromLane="0" toLane="0"/>

    <connection from="-35565756#0" to="137569483" fromLane="0" toLane="0"/>
    <connection from="-35565756#0" to="-1239101237" fromLane="0" toLane="0"/>

    <connection from="-35565756#1" to="-137569519" fromLane="0" toLane="0"/>
    <connection from="-35565756#1" to="-35565756#0" fromLane="0" toLane="0"/>

    <connection from="-35565763#0" to="-444753098" fromLane="0" toLane="0"/>
    <connection from="-35565763#0" to="137569624#0" fromLane="0" toLane="0"/>
    <connection from="-35565763#0" to="-444753099#1" fromLane="0" toLane="0"/>

    <connection from="-35565763#1" to="-35565763#0" fromLane="0" toLane="0"/>

    <connection from="-35565763#2" to="137569544" fromLane="0" toLane="0"/>
    <connection from="-35565763#2" to="-35565763#1" fromLane="0" toLane="0"/>

    <connection from="-35565763#3" to="-35565763#2" fromLane="0" toLane="0"/>
    <connection from="-35565763#3" to="137569521" fromLane="0" toLane="0"/>

    <connection from="-35565763#4" to="-444753097" fromLane="0" toLane="0"/>
    <connection from="-35565763#4" to="-35565763#3" fromLane="0" toLane="0"/>

    <connection from="-35566243#0" to="1239101236" fromLane="0" toLane="0"/>
    <connection from="-35566243#0" to="-444753103" fromLane="0" toLane="0"/>

    <connection from="-35566243#1" to="-35566243#0" fromLane="0" toLane="0"/>
    <connection from="-35566243#1" to="35565774" fromLane="0" toLane="0"/>

    <connection from="-35566243#2" to="137569597#0" fromLane="0" toLane="0"/>
    <connection from="-35566243#2" to="-35566243#1" fromLane="0" toLane="0"/>

    <connection from="-35566243#3" to="-35566243#2" fromLane="0" toLane="0"/>
    <connection from="-35566243#3" to="456243826#0" fromLane="0" toLane="0"/>

    <connection from="-35576859#0" to="456243827#1" fromLane="0" toLane="0" visibility="9.00"/>

    <connection from="-35576859#1" to="-35576859#0" fromLane="0" toLane="0"/>
    <connection from="-35576859#1" to="-137569614#1" fromLane="0" toLane="0"/>

    <connection from="-35576859#2" to="-137569574" fromLane="0" toLane="0"/>
    <connection from="-35576859#2" to="-35576859#1" fromLane="0" toLane="0"/>

    <connection from="-435326281" to="444753099#1" fromLane="0" toLane="0"/>
    <connection from="-435326281" to="-444753099#0" fromLane="0" toLane="0"/>

    <connection from="-444753097" to="-444753100#1" fromLane="0" toLane="0"/>

    <connection from="-444753098" to="-137569544" fromLane="0" toLane="0"/>
    <connection from="-444753098" to="444753096" fromLane="0" toLane="0"/>
    <connection from="-444753098" to="-137569542" fromLane="0" toLane="0"/>

    <connection from="-444753099#0"/>

    <connection from="-444753099#1" to="-444753099#0" fromLane="0" toLane="0"/>
    <connection from="-444753099#1" to="435326281" fromLane="0" toLane="0"/>

    <connection from="-444753100#0" to="-137569516" fromLane="0" toLane="0"/>
    <connection from="-444753100#0" to="218427776" fromLane="0" toLane="0"/>

    <connection from="-444753100#1" to="-137569591#2" fromLane="0" toLane="0"/>
    <connection from="-444753100#1" to="-444753100#0" fromLane="0" toLane="0"/>

    <connection from="-444753102#0" to="137569603" fromLane="0" toLane="0"/>
    <connection from="-444753102#0" to="-1239101236" fromLane="0" toLane="0"/>

    <connection from="-444753102#1" to="-444753102#0" fromLane="0" toLane="0"/>
    <connection from="-444753102#1" to="137569616" fromLane="0" toLane="0"/>

    <connection from="-444753103" to="-456243829" fromLane="0" toLane="0"/>
    <connection from="-444753103" to="435326279#0" fromLane="0" toLane="0"/>

    <connection from="-456243826#0" to="35566243#3" fromLane="0" toLane="0"/>
    <connection from="-456243826#0" to="-35566243#2" fromLane="0" toLane="0"/>

    <connection from="-456243826#1" to="-1028341546#1" fromLane="0" toLane="0"/>
    <connection from="-456243826#1" to="-456243826#0" fromLane="0" toLane="0"/>

    <connection from="-456243826#2" to="1028341546#0" fromLane="0" toLane="0"/>
    <connection from="-456243826#2" to="-456243826#1" fromLane="0" toLane="0"/>

    <connection from="-456243828" to="435326279#1" fromLane="0" toLane="0"/>

    <connection from="-456243829" to="137569515#0" fromLane="0" toLane="0"/>

    <connection from="-710479698" to="-35576859#2" fromLane="0" toLane="0"/>
    <connection from="-710479698" to="302404131" fromLane="0" toLane="0"/>

    <connection from="-734113672" to="959180913#2" fromLane="0" toLane="0"/>
    <connection from="-734113672" to="-959180913#1" fromLane="0" toLane="0"/>

    <connection from="-959180913#0" to="-137380897#0" fromLane="0" toLane="0"/>
    <connection from="-959180913#0" to="137380897#1" fromLane="0" toLane="0"/>

    <connection from="-959180913#1" to="-959180913#0" fromLane="0" toLane="0"/>
    <connection from="-959180913#1" to="-734113672" fromLane="0" toLane="0"/>

    <connection from="-959180913#2" to="-959180913#1" fromLane="0" toLane="0"/>
    <connection from="-959180913#2" to="734113672" fromLane="0" toLane="0"/>

    <connection from="-959180934#0" to="-959180956#0" fromLane="0" toLane="0"/>
    <connection from="-959180934#0" to="959180956#1" fromLane="0" toLane="0"/>

    <connection from="-959180934#1" to="-1028341543" fromLane="0" toLane="0"/>
    <connection from="-959180934#1" to="-959180934#0" fromLane="0" toLane="0"/>

    <connection from="-959180935" to="959180936#1" fromLane="0" toLane="0"/>
    <connection from="-959180935" to="-959180936#0" fromLane="0" toLane="0"/>

    <connection from="-959180936#0" to="-959180956#2" fromLane="0" toLane="0"/>
    <connection from="-959180936#0" to="959180956#3" fromLane="0" toLane="0"/>

    <connection from="-959180936#1" to="-959180936#0" fromLane="0" toLane="0"/>
    <connection from="-959180936#1" to="959180935" fromLane="0" toLane="0"/>

    <connection from="-959180956#0" to="137569574" fromLane="0" toLane="0"/>

    <connection from="-959180956#1" to="959180934#0" fromLane="0" toLane="0"/>
    <connection from="-959180956#1" to="-959180956#0" fromLane="0" toLane="0"/>

    <connection from="-959180956#2" to="-959180934#1" fromLane="0" toLane="0"/>
    <connection from="-959180956#2" to="-959180956#1" fromLane="0" toLane="0"/>

    <connection from="-959180956#3" to="959180936#0" fromLane="0" toLane="0"/>
    <connection from="-959180956#3" to="-959180956#2" fromLane="0" toLane="0"/>

    <connection from="-959180956#4" to="-137380908#2" fromLane="0" toLane="0"/>
    <connection from="-959180956#4" to="-959180956#3" fromLane="0" toLane="0"/>
    <connection from="-959180956#4" to="137380908#3" fromLane="0" toLane="0"/>

    <connection from="1028340992" to="-302404106#1" fromLane="0" toLane="0"/>
    <connection from="1028340992" to="302404106#2" fromLane="0" toLane="0"/>

    <connection from="1028341543" to="-959180934#0" fromLane="0" toLane="0"/>
    <connection from="1028341543" to="959180934#1" fromLane="0" toLane="0"/>

    <connection from="1028341546#0" to="1028341547" fromLane="0" toLane="0"/>
    <connection from="1028341546#0" to="1028341546#1" fromLane="0" toLane="0"/>

    <connection from="1028341546#1" to="-456243826#0" fromLane="0" toLane="0"/>
    <connection from="1028341546#1" to="456243826#1" fromLane="0" toLane="0"/>

    <connection from="1028341547" to="-1028341548" fromLane="0" toLane="0"/>

    <connection from="1028341548" to="-1028341547" fromLane="0" toLane="0"/>

    <connection from="1028341549#0" to="1028341549#1" fromLane="0" toLane="0"/>
    <connection from="1028341549#0" to="1028341548" fromLane="0" toLane="0"/>

    <connection from="1028341549#1"/>

    <connection from="1028341558"/>

    <connection from="1059906015"/>

    <connection from="1059906018#0" to="-1059906019" fromLane="0" toLane="0"/>
    <connection from="1059906018#0" to="1059906018#1" fromLane="0" toLane="0"/>

    <connection from="1059906018#1"/>

    <connection from="1059906019" to="1059906018#1" fromLane="0" toLane="0"/>
    <connection from="1059906019" to="-1059906018#0" fromLane="0" toLane="0"/>

    <connection from="1239101236" to="444753102#0" fromLane="0" toLane="0"/>
    <connection from="1239101236" to="137569603" fromLane="0" toLane="0"/>

    <connection from="1239101237" to="35565756#0" fromLane="0" toLane="0"/>
    <connection from="1239101237" to="137569483" fromLane="0" toLane="0"/>

    <connection from="137380897#0" to="137380897#1" fromLane="0" toLane="0"/>
    <connection from="137380897#0" to="959180913#0" fromLane="0" toLane="0"/>

    <connection from="137380897#1" to="-959180956#4" fromLane="0" toLane="0"/>
    <connection from="137380897#1" to="137380897#2" fromLane="0" toLane="0"/>

    <connection from="137380897#2" to="-137380908#3" fromLane="0" toLane="0"/>
    <connection from="137380897#2" to="137380897#3" fromLane="0" toLane="0"/>

    <connection from="137380897#3" to="-302404071#2" fromLane="0" toLane="0"/>
    <connection from="137380897#3" to="-137569586#3" fromLane="0" toLane="0"/>
    <connection from="137380897#3" to="302404071#3" fromLane="0" toLane="0"/>

    <connection from="137380908#0" to="-959180936#1" fromLane="0" toLane="0"/>
    <connection from="137380908#0" to="137380908#1" fromLane="0" toLane="0"/>

    <connection from="137380908#1" to="-959180935" fromLane="0" toLane="0"/>
    <connection from="137380908#1" to="137380908#2" fromLane="0" toLane="0"/>

    <connection from="137380908#2" to="-959180956#3" fromLane="0" toLane="0"/>
    <connection from="137380908#2" to="137380908#3" fromLane="0" toLane="0"/>
    <connection from="137380908#2" to="959180956#4" fromLane="0" toLane="0"/>

    <connection from="137380908#3" to="137380897#3" fromLane="0" toLane="0"/>
    <connection from="137380908#3" to="-137380897#2" fromLane="0" toLane="0"/>

    <connection from="137569472" to="-218427777" fromLane="0" toLane="0"/>
    <connection from="137569472" to="137569511" fromLane="0" toLane="0"/>

    <connection from="137569479#0" to="-137569599" fromLane="0" toLane="0"/>
    <connection from="137569479#0" to="137569479#1" fromLane="0" toLane="0"/>

    <connection from="137569479#1" to="137569479#2" fromLane="0" toLane="0"/>
    <connection from="137569479#1" to="1059906019" fromLane="0" toLane="0"/>

    <connection from="137569479#2" to="302404106#0" fromLane="0" toLane="0"/>
    <connection from="137569479#2" to="-35565756#1" fromLane="0" toLane="0"/>

    <connection from="137569483" to="-444753100#1" fromLane="0" toLane="0"/>
    <connection from="137569483" to="444753097" fromLane="0" toLane="0"/>

    <connection from="137569495" to="137569591#2" fromLane="0" toLane="0"/>
    <connection from="137569495" to="-137569591#1" fromLane="0" toLane="0"/>

    <connection from="137569506#0" to="137569506#1" fromLane="0" toLane="0"/>
    <connection from="137569506#0" to="1028341558" fromLane="0" toLane="0"/>

    <connection from="137569506#1"/>

    <connection from="137569511" to="137569542" fromLane="0" toLane="0"/>
    <connection from="137569511" to="-137569631#1" fromLane="0" toLane="0"/>

    <connection from="137569514" to="-137569591#0" fromLane="0" toLane="0"/>
    <connection from="137569514" to="137569591#1" fromLane="0" toLane="0"/>

    <connection from="137569515#0" to="137569515#1" fromLane="0" toLane="0"/>
    <connection from="137569515#0" to="-435326281" fromLane="0" toLane="0"/>

    <connection from="137569515#1" to="35565763#1" fromLane="0" toLane="0"/>
    <connection from="137569515#1" to="-35565763#0" fromLane="0" toLane="0"/>

    <connection from="137569516" to="218427776" fromLane="0" toLane="0"/>
    <connection from="137569516" to="444753100#0" fromLane="0" toLane="0"/>

    <connection from="137569519" to="-35565756#0" fromLane="0" toLane="0"/>
    <connection from="137569519" to="35565756#1" fromLane="0" toLane="0"/>

    <connection from="137569521" to="137569515#0" fromLane="0" toLane="0"/>
    <connection from="137569521" to="456243829" fromLane="0" toLane="0"/>

    <connection from="137569532#0" to="137569506#0" fromLane="0" toLane="0"/>
    <connection from="137569532#0" to="137569532#1" fromLane="0" toLane="0"/>

    <connection from="137569532#1"/>

    <connection from="137569542" to="444753098" fromLane="0" toLane="0"/>
    <connection from="137569542" to="-137569544" fromLane="0" toLane="0"/>
    <connection from="137569542" to="444753096" fromLane="0" toLane="0"/>

    <connection from="137569544" to="444753096" fromLane="0" toLane="0"/>
    <connection from="137569544" to="-137569542" fromLane="0" toLane="0"/>
    <connection from="137569544" to="444753098" fromLane="0" toLane="0"/>

    <connection from="137569554" to="-444753103" fromLane="0" toLane="0"/>
    <connection from="137569554" to="35566243#0" fromLane="0" toLane="0"/>
    <connection from="137569554" to="1239101236" fromLane="0" toLane="0"/>

    <connection from="137569574" to="-35576859#1" fromLane="0" toLane="0"/>
    <connection from="137569574" to="35576859#2" fromLane="0" toLane="0"/>

    <connection from="137569586#0" to="137569586#1" fromLane="0" toLane="0"/>
    <connection from="137569586#0" to="-333944623#1" fromLane="0" toLane="0"/>

    <connection from="137569586#1" to="333944633#0" fromLane="0" toLane="0"/>
    <connection from="137569586#1" to="137569586#2" fromLane="0" toLane="0"/>
    <connection from="137569586#1" to="-333944628" fromLane="0" toLane="0"/>

    <connection from="137569586#2" to="137569586#3" fromLane="0" toLane="0"/>

    <connection from="137569586#3" to="302404071#3" fromLane="0" toLane="0"/>
    <connection from="137569586#3" to="-137380897#3" fromLane="0" toLane="0"/>
    <connection from="137569586#3" to="-302404071#2" fromLane="0" toLane="0"/>

    <connection from="137569591#0" to="137569591#1" fromLane="0" toLane="0"/>
    <connection from="137569591#0" to="-137569514" fromLane="0" toLane="0"/>

    <connection from="137569591#1" to="-137569495" fromLane="0" toLane="0"/>
    <connection from="137569591#1" to="137569591#2" fromLane="0" toLane="0"/>

    <connection from="137569591#2" to="-444753100#0" fromLane="0" toLane="0"/>
    <connection from="137569591#2" to="444753100#1" fromLane="0" toLane="0"/>

    <connection from="137569597#0" to="137569610" fromLane="0" toLane="0"/>
    <connection from="137569597#0" to="137569597#1" fromLane="0" toLane="0"/>

    <connection from="137569597#1" to="-137569610" fromLane="0" toLane="0"/>
    <connection from="137569597#1" to="137569597#2" fromLane="0" toLane="0"/>

    <connection from="137569597#2"/>

    <connection from="137569599" to="137569479#1" fromLane="0" toLane="0"/>
    <connection from="137569599" to="-137569479#0" fromLane="0" toLane="0"/>

    <connection from="137569603" to="35565756#0" fromLane="0" toLane="0"/>
    <connection from="137569603" to="137569483" fromLane="0" toLane="0"/>
    <connection from="137569603" to="-1239101237" fromLane="0" toLane="0"/>

    <connection from="137569610" to="137569597#2" fromLane="0" toLane="0"/>
    <connection from="137569610" to="-137569597#1" fromLane="0" toLane="0"/>

    <connection from="137569614#0" to="137569614#1" fromLane="0" toLane="0"/>
    <connection from="137569614#0" to="1059906015" fromLane="0" toLane="0"/>

    <connection from="137569614#1" to="35576859#1" fromLane="0" toLane="0"/>
    <connection from="137569614#1" to="-35576859#0" fromLane="0" toLane="0"/>

    <connection from="137569616"/>

    <connection from="137569623" to="-137569586#2" fromLane="0" toLane="0"/>
    <connection from="137569623" to="137569586#3" fromLane="0" toLane="0"/>

    <connection from="137569624#0" to="218427777" fromLane="0" toLane="0"/>
    <connection from="137569624#0" to="137569624#1" fromLane="0" toLane="0"/>

    <connection from="137569624#1" to="137569624#2" fromLane="0" toLane="0"/>
    <connection from="137569624#1" to="1028341549#0" fromLane="0" toLane="0"/>

    <connection from="137569624#2" to="137569624#3" fromLane="0" toLane="0"/>
    <connection from="137569624#2" to="137569614#0" fromLane="0" toLane="0"/>

    <connection from="137569624#3" to="137569472" fromLane="0" toLane="0"/>
    <connection from="137569624#3" to="137569624#4" fromLane="0" toLane="0"/>

    <connection from="137569624#4" to="218428692" fromLane="0" toLane="0"/>
    <connection from="137569624#4" to="137569624#5" fromLane="0" toLane="0"/>

    <connection from="137569624#5" to="302404118" fromLane="0" toLane="0"/>
