<?xml version="1.0" encoding="UTF-8"?>

<!-- generated on 2025-02-05 23:22:41 by Eclipse SUMO netconvert Version 1.19.0
<configuration xmlns:xsi="http://www.w3.org/2001/XMLSchema-instance" xsi:noNamespaceSchemaLocation="http://sumo.dlr.de/xsd/netconvertConfiguration.xsd">

    <input>
        <sumo-net-file value="sourdun_small.net.xml"/>
    </input>

    <output>
        <output-file value="sourdun_small.rou.xml"/>
    </output>

    <processing>
        <geometry.min-radius.fix.railways value="false"/>
        <geometry.max-grade.fix value="false"/>
        <offset.disable-normalization value="true"/>
        <lefthand value="0"/>
    </processing>

    <junctions>
        <no-turnarounds value="true"/>
        <junctions.corner-detail value="5"/>
        <junctions.limit-turn-speed value="5.50"/>
        <rectangular-lane-cut value="0"/>
    </junctions>

    <pedestrian>
        <walkingareas value="0"/>
    </pedestrian>

</configuration>
-->

<net version="1.16" junctionCornerDetail="5" limitTurnSpeed="5.50" xmlns:xsi="http://www.w3.org/2001/XMLSchema-instance" xsi:noNamespaceSchemaLocation="http://sumo.dlr.de/xsd/net_file.xsd">

    <location netOffset="0.00,0.00" convBoundary="507567.08,5385437.24,514322.35,5391347.32" origBoundary="3.102714,48.621841,3.194347,48.675043" projParameter="+proj=utm +zone=31 +ellps=WGS84 +datum=WGS84 +units=m +no_defs"/>

    <type id="highway.primary" priority="12" numLanes="2" speed="27.78" disallow="tram rail_urban rail rail_electric rail_fast ship" oneway="0"/>
    <type id="highway.primary_link" priority="7" numLanes="1" speed="22.22" disallow="tram rail_urban rail rail_electric rail_fast ship" oneway="0"/>
    <type id="highway.residential" priority="3" numLanes="1" speed="13.89" disallow="tram rail_urban rail rail_electric rail_fast ship" oneway="0"/>
    <type id="highway.secondary" priority="11" numLanes="1" speed="27.78" disallow="tram rail_urban rail rail_electric rail_fast ship" oneway="0"/>
    <type id="highway.service" priority="1" numLanes="1" speed="5.56" allow="pedestrian delivery bicycle" oneway="0"/>
    <type id="highway.tertiary" priority="10" numLanes="1" speed="22.22" disallow="tram rail_urban rail rail_electric rail_fast ship" oneway="0"/>
    <type id="highway.track" priority="1" numLanes="1" speed="5.56" allow="pedestrian motorcycle moped bicycle" oneway="0"/>
    <type id="highway.unclassified" priority="4" numLanes="1" speed="13.89" disallow="tram rail_urban rail rail_electric rail_fast ship" oneway="0"/>

    <edge id=":1241043797_0" function="internal">
        <lane id=":1241043797_0_0" index="0" disallow="tram rail_urban rail rail_electric rail_fast ship" speed="22.22" length="0.10" shape="512476.09,5389921.27 512476.00,5389921.26"/>
    </edge>
    <edge id=":1241043797_1" function="internal">
        <lane id=":1241043797_1_0" index="0" disallow="tram rail_urban rail rail_electric rail_fast ship" speed="22.22" length="0.10" shape="512476.34,5389918.08 512476.25,5389918.07"/>
    </edge>
    <edge id=":1507165665_0" function="internal">
        <lane id=":1507165665_0_0" index="0" disallow="tram rail_urban rail rail_electric rail_fast ship" speed="7.36" length="10.42" shape="511007.53,5389184.97 511005.09,5389183.45 511002.70,5389182.94 511000.37,5389183.43 510998.10,5389184.93"/>
    </edge>
    <edge id=":1507165665_1" function="internal">
        <lane id=":1507165665_1_0" index="0" disallow="tram rail_urban rail rail_electric rail_fast ship" speed="22.22" length="15.28" shape="511007.53,5389184.97 511004.62,5389182.53 511001.74,5389179.99 510998.91,5389177.37 510996.20,5389174.72"/>
    </edge>
    <edge id=":1507165665_2" function="internal">
        <lane id=":1507165665_2_0" index="0" disallow="tram rail_urban rail rail_electric rail_fast ship" speed="7.74" length="14.83" shape="511007.53,5389184.97 511004.72,5389181.90 511003.74,5389178.80 511004.59,5389175.65 511007.28,5389172.48"/>
    </edge>
    <edge id=":1507165665_3" function="internal">
        <lane id=":1507165665_3_0" index="0" disallow="tram rail_urban rail rail_electric rail_fast ship" speed="6.19" length="9.05" shape="511009.40,5389174.87 511007.76,5389176.81 511007.24,5389178.73 511007.84,5389180.62 511009.56,5389182.49"/>
    </edge>
    <edge id=":1507165665_4" function="internal">
        <lane id=":1507165665_4_0" index="0" disallow="tram rail_urban rail rail_electric rail_fast ship" speed="25.00" length="15.13" shape="511009.40,5389174.87 510998.10,5389184.93"/>
    </edge>
    <edge id=":1507165665_5" function="internal">
        <lane id=":1507165665_5_0" index="0" disallow="tram rail_urban rail rail_electric rail_fast ship" speed="8.36" length="4.30" shape="511009.40,5389174.87 511005.98,5389177.17 511005.80,5389177.21"/>
    </edge>
    <edge id=":1507165665_12" function="internal">
        <lane id=":1507165665_12_0" index="0" disallow="tram rail_urban rail rail_electric rail_fast ship" speed="8.36" length="10.57" shape="511005.80,5389177.21 511002.64,5389177.91 510999.37,5389177.09 510996.20,5389174.72"/>
    </edge>
    <edge id=":1507165665_6" function="internal">
        <lane id=":1507165665_6_0" index="0" disallow="tram rail_urban rail rail_electric rail_fast ship" speed="6.93" length="9.93" shape="510998.46,5389172.46 511000.57,5389174.02 511002.74,5389174.55 511004.98,5389174.03 511007.28,5389172.48"/>
    </edge>
    <edge id=":1507165665_7" function="internal">
        <lane id=":1507165665_7_0" index="0" disallow="tram rail_urban rail rail_electric rail_fast ship" speed="22.22" length="14.96" shape="510998.46,5389172.46 511001.14,5389175.08 511003.88,5389177.62 511006.69,5389180.09 511009.56,5389182.49"/>
    </edge>
    <edge id=":1507165665_8" function="internal">
        <lane id=":1507165665_8_0" index="0" disallow="tram rail_urban rail rail_electric rail_fast ship" speed="7.90" length="14.41" shape="510998.46,5389172.46 511000.84,5389175.65 511001.57,5389178.79 511000.66,5389181.88 510998.10,5389184.93"/>
    </edge>
    <edge id=":1507165665_9" function="internal">
        <lane id=":1507165665_9_0" index="0" disallow="tram rail_urban rail rail_electric rail_fast ship" speed="6.39" length="9.04" shape="510995.97,5389182.54 510997.57,5389180.63 510998.15,5389178.69 510997.69,5389176.72 510996.20,5389174.72"/>
    </edge>
    <edge id=":1507165665_10" function="internal">
        <lane id=":1507165665_10_0" index="0" disallow="tram rail_urban rail rail_electric rail_fast ship" speed="25.00" length="15.14" shape="510995.97,5389182.54 511007.28,5389172.48"/>
    </edge>
    <edge id=":1507165665_11" function="internal">
        <lane id=":1507165665_11_0" index="0" disallow="tram rail_urban rail rail_electric rail_fast ship" speed="8.72" length="4.15" shape="510995.97,5389182.54 510999.27,5389180.35 510999.45,5389180.31"/>
    </edge>
    <edge id=":1507165665_13" function="internal">
        <lane id=":1507165665_13_0" index="0" disallow="tram rail_urban rail rail_electric rail_fast ship" speed="8.72" length="10.87" shape="510999.45,5389180.31 511002.63,5389179.62 511006.06,5389180.33 511009.56,5389182.49"/>
    </edge>
    <edge id=":1507165672_0" function="internal">
        <lane id=":1507165672_0_0" index="0" disallow="tram rail_urban rail rail_electric rail_fast ship" speed="12.80" length="15.13" shape="511805.55,5389844.78 511805.14,5389840.94 511804.44,5389837.11 511803.11,5389833.62 511800.81,5389830.80"/>
    </edge>
    <edge id=":1507165672_1" function="internal">
        <lane id=":1507165672_1_0" index="0" disallow="tram rail_urban rail rail_electric rail_fast ship" speed="7.42" length="19.33" shape="511805.55,5389844.78 511805.61,5389838.60 511807.38,5389835.60 511810.86,5389835.77 511816.05,5389839.12"/>
    </edge>
    <edge id=":1507165672_2" function="internal">
        <lane id=":1507165672_2_0" index="0" disallow="tram rail_urban rail rail_electric rail_fast ship" speed="5.47" length="9.74" shape="511814.03,5389841.60 511811.41,5389839.91 511809.66,5389839.82 511808.76,5389841.34 511808.74,5389844.45"/>
    </edge>
    <edge id=":1507165672_3" function="internal">
        <lane id=":1507165672_3_0" index="0" disallow="tram rail_urban rail rail_electric rail_fast ship" speed="22.22" length="17.07" shape="511814.03,5389841.60 511800.81,5389830.80"/>
    </edge>
    <edge id=":1507165672_4" function="internal">
        <lane id=":1507165672_4_0" index="0" disallow="tram rail_urban rail rail_electric rail_fast ship" speed="22.22" length="17.07" shape="511802.83,5389828.33 511816.05,5389839.12"/>
    </edge>
    <edge id=":1507165672_5" function="internal">
        <lane id=":1507165672_5_0" index="0" disallow="tram rail_urban rail rail_electric rail_fast ship" speed="13.74" length="3.32" shape="511802.83,5389828.33 511804.89,5389830.94"/>
    </edge>
    <edge id=":1507165672_6" function="internal">
        <lane id=":1507165672_6_0" index="0" disallow="tram rail_urban rail rail_electric rail_fast ship" speed="13.74" length="14.18" shape="511804.89,5389830.94 511805.31,5389831.48 511807.04,5389835.71 511808.14,5389840.28 511808.74,5389844.45"/>
    </edge>
    <edge id=":1507165677_0" function="internal">
        <lane id=":1507165677_0_0" index="0" disallow="tram rail_urban rail rail_electric rail_fast ship" speed="22.22" length="14.50" shape="512087.28,5389901.99 512072.78,5389902.11"/>
    </edge>
    <edge id=":1507165677_1" function="internal">
        <lane id=":1507165677_1_0" index="0" allow="pedestrian motorcycle moped bicycle" speed="7.52" length="4.14" shape="512087.28,5389901.99 512083.20,5389901.31"/>
    </edge>
    <edge id=":1507165677_6" function="internal">
        <lane id=":1507165677_6_0" index="0" allow="pedestrian motorcycle moped bicycle" speed="7.52" length="11.61" shape="512083.20,5389901.31 512082.78,5389901.24 512080.13,5389899.26 512079.34,5389896.05 512080.41,5389891.61"/>
    </edge>
    <edge id=":1507165677_2" function="internal">
        <lane id=":1507165677_2_0" index="0" allow="pedestrian motorcycle moped bicycle" speed="5.88" length="9.11" shape="512083.38,5389892.78 512082.76,5389895.35 512083.22,5389897.21 512084.75,5389898.36 512087.36,5389898.79"/>
    </edge>
    <edge id=":1507165677_3" function="internal">
        <lane id=":1507165677_3_0" index="0" allow="pedestrian motorcycle moped bicycle" speed="9.90" length="14.94" shape="512083.38,5389892.78 512081.40,5389896.72 512078.97,5389899.58 512076.10,5389901.38 512072.78,5389902.11"/>
    </edge>
    <edge id=":1507165677_4" function="internal">
        <lane id=":1507165677_4_0" index="0" allow="pedestrian motorcycle moped bicycle" speed="8.66" length="11.29" shape="512072.61,5389898.91 512074.98,5389898.35 512077.07,5389896.95 512078.88,5389894.70 512080.41,5389891.61"/>
    </edge>
    <edge id=":1507165677_5" function="internal">
        <lane id=":1507165677_5_0" index="0" disallow="tram rail_urban rail rail_electric rail_fast ship" speed="22.22" length="14.75" shape="512072.61,5389898.91 512087.36,5389898.79"/>
    </edge>
    <edge id=":1507165686_0" function="internal">
        <lane id=":1507165686_0_0" index="0" allow="pedestrian motorcycle moped bicycle" speed="6.06" length="9.07" shape="511847.73,5389943.52 511847.01,5389941.04 511845.70,5389939.59 511843.79,5389939.16 511841.28,5389939.75"/>
    </edge>
    <edge id=":1507165686_1" function="internal">
        <lane id=":1507165686_1_0" index="0" disallow="tram rail_urban rail rail_electric rail_fast ship" speed="13.89" length="14.87" shape="511847.73,5389943.52 511847.09,5389939.84 511846.21,5389936.24 511845.05,5389932.72 511843.61,5389929.28"/>
    </edge>
    <edge id=":1507165686_2" function="internal">
        <lane id=":1507165686_2_0" index="0" allow="pedestrian motorcycle moped bicycle" speed="8.92" length="4.23" shape="511847.73,5389943.52 511847.65,5389939.29"/>
    </edge>
    <edge id=":1507165686_12" function="internal">
        <lane id=":1507165686_12_0" index="0" allow="pedestrian motorcycle moped bicycle" speed="8.92" length="10.75" shape="511847.65,5389939.29 511848.69,5389935.86 511850.86,5389933.24 511854.16,5389931.43"/>
    </edge>
    <edge id=":1507165686_3" function="internal">
        <lane id=":1507165686_3_0" index="0" allow="pedestrian motorcycle moped bicycle" speed="7.58" length="10.58" shape="511855.26,5389934.43 511853.00,5389935.70 511851.52,5389937.56 511850.82,5389940.02 511850.90,5389943.08"/>
    </edge>
    <edge id=":1507165686_4" function="internal">
        <lane id=":1507165686_4_0" index="0" allow="pedestrian motorcycle moped bicycle" speed="5.56" length="14.96" shape="511855.26,5389934.43 511841.28,5389939.75"/>
    </edge>
    <edge id=":1507165686_5" function="internal">
        <lane id=":1507165686_5_0" index="0" allow="pedestrian motorcycle moped bicycle" speed="8.28" length="14.26" shape="511855.26,5389934.43 511851.57,5389935.19 511848.40,5389934.59 511845.75,5389932.61 511843.61,5389929.28"/>
    </edge>
    <edge id=":1507165686_6" function="internal">
        <lane id=":1507165686_6_0" index="0" allow="pedestrian motorcycle moped bicycle" speed="6.84" length="9.42" shape="511846.51,5389927.92 511847.93,5389930.16 511849.68,5389931.49 511851.76,5389931.91 511854.16,5389931.43"/>
    </edge>
    <edge id=":1507165686_7" function="internal">
        <lane id=":1507165686_7_0" index="0" disallow="tram rail_urban rail rail_electric rail_fast ship" speed="13.89" length="15.82" shape="511846.51,5389927.92 511847.99,5389931.51 511849.24,5389935.34 511850.22,5389939.26 511850.90,5389943.08"/>
    </edge>
    <edge id=":1507165686_8" function="internal">
        <lane id=":1507165686_8_0" index="0" allow="pedestrian motorcycle moped bicycle" speed="8.02" length="4.36" shape="511846.51,5389927.92 511847.63,5389931.76 511847.58,5389932.12"/>
    </edge>
    <edge id=":1507165686_13" function="internal">
        <lane id=":1507165686_13_0" index="0" allow="pedestrian motorcycle moped bicycle" speed="8.02" length="10.60" shape="511847.58,5389932.12 511847.13,5389935.01 511845.02,5389937.67 511841.28,5389939.75"/>
    </edge>
    <edge id=":1507165686_9" function="internal">
        <lane id=":1507165686_9_0" index="0" allow="pedestrian motorcycle moped bicycle" speed="6.54" length="9.56" shape="511840.11,5389936.77 511842.55,5389935.43 511843.95,5389933.74 511844.30,5389931.68 511843.61,5389929.28"/>
    </edge>
    <edge id=":1507165686_10" function="internal">
        <lane id=":1507165686_10_0" index="0" allow="pedestrian motorcycle moped bicycle" speed="5.56" length="15.03" shape="511840.11,5389936.77 511854.16,5389931.43"/>
    </edge>
    <edge id=":1507165686_11" function="internal">
        <lane id=":1507165686_11_0" index="0" allow="pedestrian motorcycle moped bicycle" speed="7.64" length="15.18" shape="511840.11,5389936.77 511844.31,5389935.78 511847.50,5389936.50 511849.70,5389938.93 511850.90,5389943.08"/>
    </edge>
    <edge id=":1507165695_0" function="internal">
        <lane id=":1507165695_0_0" index="0" allow="pedestrian motorcycle moped bicycle" speed="9.72" length="21.67" shape="511855.52,5390262.05 511834.01,5390264.71"/>
    </edge>
    <edge id=":1507165695_1" function="internal">
        <lane id=":1507165695_1_0" index="0" disallow="tram rail_urban rail rail_electric rail_fast ship" speed="13.89" length="22.21" shape="511855.52,5390262.05 511850.73,5390261.58 511844.70,5390260.07 511838.73,5390258.18 511834.09,5390256.56"/>
    </edge>
    <edge id=":1507165695_2" function="internal">
        <lane id=":1507165695_2_0" index="0" disallow="tram rail_urban rail rail_electric rail_fast ship" speed="13.89" length="20.90" shape="511835.17,5390253.54 511839.60,5390255.14 511845.12,5390256.97 511850.70,5390258.42 511855.29,5390258.86"/>
    </edge>
    <edge id=":1507165695_3" function="internal">
        <lane id=":1507165695_3_0" index="0" allow="pedestrian motorcycle moped bicycle" speed="6.29" length="2.29" shape="511835.17,5390253.54 511836.96,5390254.96"/>
    </edge>
    <edge id=":1507165695_6" function="internal">
        <lane id=":1507165695_6_0" index="0" allow="pedestrian motorcycle moped bicycle" speed="6.29" length="13.04" shape="511836.96,5390254.96 511838.34,5390256.05 511839.11,5390259.59 511837.63,5390262.90 511834.01,5390264.71"/>
    </edge>
    <edge id=":1507165695_4" function="internal">
        <lane id=":1507165695_4_0" index="0" allow="pedestrian motorcycle moped bicycle" speed="5.58" length="11.67" shape="511833.58,5390261.54 511837.53,5390260.69 511838.93,5390259.58 511837.79,5390258.20 511834.09,5390256.56"/>
    </edge>
    <edge id=":1507165695_5" function="internal">
        <lane id=":1507165695_5_0" index="0" allow="pedestrian motorcycle moped bicycle" speed="9.72" length="21.87" shape="511833.58,5390261.54 511855.29,5390258.86"/>
    </edge>
    <edge id=":1508835984_0" function="internal">
        <lane id=":1508835984_0_0" index="0" allow="pedestrian motorcycle moped bicycle" speed="8.59" length="11.09" shape="509516.45,5388119.66 509515.72,5388116.38 509514.51,5388113.83 509512.83,5388112.00 509510.66,5388110.90"/>
    </edge>
    <edge id=":1508835984_1" function="internal">
        <lane id=":1508835984_1_0" index="0" allow="pedestrian motorcycle moped bicycle" speed="7.56" length="15.52" shape="509516.45,5388119.66 509516.49,5388115.19 509518.00,5388112.26 509520.98,5388110.87 509525.45,5388111.02"/>
    </edge>
    <edge id=":1508835984_2" function="internal">
        <lane id=":1508835984_2_0" index="0" allow="pedestrian motorcycle moped bicycle" speed="5.94" length="9.09" shape="509524.89,5388114.17 509522.28,5388114.08 509520.53,5388114.90 509519.64,5388116.61 509519.62,5388119.23"/>
    </edge>
    <edge id=":1508835984_3" function="internal">
        <lane id=":1508835984_3_0" index="0" disallow="tram rail_urban rail rail_electric rail_fast ship" speed="22.22" length="14.61" shape="509524.89,5388114.17 509521.26,5388113.50 509517.72,5388112.76 509514.21,5388111.91 509510.66,5388110.90"/>
    </edge>
    <edge id=":1508835984_4" function="internal">
        <lane id=":1508835984_4_0" index="0" disallow="tram rail_urban rail rail_electric rail_fast ship" speed="22.22" length="14.22" shape="509511.60,5388107.84 509515.09,5388108.83 509518.47,5388109.65 509521.88,5388110.36 509525.45,5388111.02"/>
    </edge>
    <edge id=":1508835984_5" function="internal">
        <lane id=":1508835984_5_0" index="0" allow="pedestrian motorcycle moped bicycle" speed="9.83" length="3.51" shape="509511.60,5388107.84 509514.64,5388109.33 509514.73,5388109.42"/>
    </edge>
    <edge id=":1508835984_6" function="internal">
        <lane id=":1508835984_6_0" index="0" allow="pedestrian motorcycle moped bicycle" speed="9.83" length="11.24" shape="509514.73,5388109.42 509516.99,5388111.72 509518.65,5388115.02 509519.62,5388119.23"/>
    </edge>
    <edge id=":1508836203_0" function="internal">
        <lane id=":1508836203_0_0" index="0" allow="pedestrian motorcycle moped bicycle" speed="6.04" length="9.07" shape="510837.17,5388773.33 510835.52,5388771.34 510833.73,5388770.54 510831.82,5388770.93 510829.77,5388772.51"/>
    </edge>
    <edge id=":1508836203_1" function="internal">
        <lane id=":1508836203_1_0" index="0" disallow="tram rail_urban rail rail_electric rail_fast ship" speed="22.22" length="16.14" shape="510837.17,5388773.33 510828.70,5388759.59"/>
    </edge>
    <edge id=":1508836203_2" function="internal">
        <lane id=":1508836203_2_0" index="0" disallow="tram rail_urban rail rail_electric rail_fast ship" speed="9.27" length="4.47" shape="510837.17,5388773.33 510835.43,5388769.42 510835.41,5388769.23"/>
    </edge>
    <edge id=":1508836203_12" function="internal">
        <lane id=":1508836203_12_0" index="0" disallow="tram rail_urban rail rail_electric rail_fast ship" speed="9.27" length="11.51" shape="510835.41,5388769.23 510835.13,5388765.70 510836.27,5388762.15 510838.85,5388758.79"/>
    </edge>
    <edge id=":1508836203_3" function="internal">
        <lane id=":1508836203_3_0" index="0" disallow="tram rail_urban rail rail_electric rail_fast ship" speed="7.98" length="11.64" shape="510841.11,5388761.06 510839.23,5388763.51 510838.40,5388766.09 510838.62,5388768.80 510839.89,5388771.65"/>
    </edge>
    <edge id=":1508836203_4" function="internal">
        <lane id=":1508836203_4_0" index="0" allow="pedestrian motorcycle moped bicycle" speed="9.72" length="16.11" shape="510841.11,5388761.06 510829.77,5388772.51"/>
    </edge>
    <edge id=":1508836203_5" function="internal">
        <lane id=":1508836203_5_0" index="0" disallow="tram rail_urban rail rail_electric rail_fast ship" speed="7.65" length="15.14" shape="510841.11,5388761.06 510837.66,5388763.62 510834.44,5388764.23 510831.45,5388762.89 510828.70,5388759.59"/>
    </edge>
    <edge id=":1508836203_6" function="internal">
        <lane id=":1508836203_6_0" index="0" disallow="tram rail_urban rail rail_electric rail_fast ship" speed="6.07" length="9.07" shape="510831.42,5388757.91 510833.07,5388759.88 510834.86,5388760.69 510836.79,5388760.32 510838.85,5388758.79"/>
    </edge>
    <edge id=":1508836203_7" function="internal">
        <lane id=":1508836203_7_0" index="0" disallow="tram rail_urban rail rail_electric rail_fast ship" speed="22.22" length="16.14" shape="510831.42,5388757.91 510839.89,5388771.65"/>
    </edge>
    <edge id=":1508836203_8" function="internal">
        <lane id=":1508836203_8_0" index="0" allow="pedestrian motorcycle moped bicycle" speed="9.34" length="4.45" shape="510831.42,5388757.91 510833.15,5388761.78 510833.16,5388761.99"/>
    </edge>
    <edge id=":1508836203_13" function="internal">
        <lane id=":1508836203_13_0" index="0" allow="pedestrian motorcycle moped bicycle" speed="9.34" length="11.55" shape="510833.16,5388761.99 510833.45,5388765.51 510832.32,5388769.08 510829.77,5388772.51"/>
    </edge>
    <edge id=":1508836203_9" function="internal">
        <lane id=":1508836203_9_0" index="0" allow="pedestrian motorcycle moped bicycle" speed="8.07" length="11.72" shape="510827.48,5388770.28 510829.35,5388767.77 510830.18,5388765.15 510829.96,5388762.42 510828.70,5388759.59"/>
    </edge>
    <edge id=":1508836203_10" function="internal">
        <lane id=":1508836203_10_0" index="0" allow="pedestrian motorcycle moped bicycle" speed="9.72" length="16.17" shape="510827.48,5388770.28 510838.85,5388758.79"/>
    </edge>
    <edge id=":1508836203_11" function="internal">
        <lane id=":1508836203_11_0" index="0" allow="pedestrian motorcycle moped bicycle" speed="7.63" length="15.23" shape="510827.48,5388770.28 510830.91,5388767.63 510834.13,5388766.98 510837.12,5388768.32 510839.89,5388771.65"/>
    </edge>
    <edge id=":1508836280_0" function="internal">
        <lane id=":1508836280_0_0" index="0" disallow="tram rail_urban rail rail_electric rail_fast ship" speed="22.22" length="10.17" shape="510984.49,5389158.94 510982.95,5389156.37 510982.04,5389154.50 510981.39,5389152.51 510980.66,5389149.60"/>
    </edge>
    <edge id=":1508836280_1" function="internal">
        <lane id=":1508836280_1_0" index="0" disallow="tram rail_urban rail rail_electric rail_fast ship" speed="22.22" length="9.17" shape="510983.77,5389148.84 510984.43,5389151.47 510985.00,5389153.25 510985.82,5389154.93 510987.21,5389157.26"/>
    </edge>
    <edge id=":1508836280_2" function="internal">
        <lane id=":1508836280_2_0" index="0" disallow="tram rail_urban rail rail_electric rail_fast ship" speed="6.52" length="8.60" shape="510976.92,5389156.28 510979.03,5389155.26 510980.35,5389153.81 510980.90,5389151.93 510980.66,5389149.60"/>
    </edge>
    <edge id=":1508836280_3" function="internal">
        <lane id=":1508836280_3_0" index="0" disallow="tram rail_urban rail rail_electric rail_fast ship" speed="7.84" length="11.05" shape="510976.92,5389156.28 510980.60,5389155.37 510983.54,5389155.23 510985.74,5389155.86 510987.21,5389157.26"/>
    </edge>
    <edge id=":1508836322_0" function="internal">
        <lane id=":1508836322_0_0" index="0" disallow="tram rail_urban rail rail_electric rail_fast ship" speed="25.00" length="19.07" shape="510948.33,5389229.38 510934.12,5389242.09"/>
    </edge>
    <edge id=":1508836322_1" function="internal">
        <lane id=":1508836322_1_0" index="0" disallow="tram rail_urban rail rail_electric rail_fast ship" speed="4.86" length="1.92" shape="510948.33,5389229.38 510946.50,5389229.97"/>
    </edge>
    <edge id=":1508836322_4" function="internal">
        <lane id=":1508836322_4_0" index="0" disallow="tram rail_urban rail rail_electric rail_fast ship" speed="4.86" length="7.41" shape="510946.50,5389229.97 510946.11,5389230.10 510944.11,5389229.05 510943.03,5389226.98 510943.62,5389224.64"/>
    </edge>
    <edge id=":1508836322_2" function="internal">
        <lane id=":1508836322_2_0" index="0" disallow="tram rail_urban rail rail_electric rail_fast ship" speed="23.61" length="19.06" shape="510931.99,5389239.70 510934.97,5389236.51 510938.09,5389232.43 510941.07,5389228.21 510943.62,5389224.64"/>
    </edge>
    <edge id=":1508836322_3" function="internal">
        <lane id=":1508836322_3_0" index="0" disallow="tram rail_urban rail rail_electric rail_fast ship" speed="25.00" length="19.06" shape="510931.99,5389239.70 510946.20,5389226.99"/>
    </edge>
    <edge id=":1508836361_0" function="internal">
        <lane id=":1508836361_0_0" index="0" allow="pedestrian motorcycle moped bicycle" speed="9.72" length="0.31" shape="509664.75,5389440.56 509664.74,5389440.25"/>
    </edge>
    <edge id=":1508836361_1" function="internal">
        <lane id=":1508836361_1_0" index="0" allow="pedestrian motorcycle moped bicycle" speed="9.72" length="0.10" shape="509667.94,5389440.18 509667.94,5389440.28"/>
    </edge>
    <edge id=":1508836424_0" function="internal">
        <lane id=":1508836424_0_0" index="0" disallow="tram rail_urban rail rail_electric rail_fast ship" speed="13.89" length="16.25" shape="509630.80,5389684.25 509626.02,5389699.77"/>
    </edge>
    <edge id=":1508836424_1" function="internal">
        <lane id=":1508836424_1_0" index="0" disallow="tram rail_urban rail rail_electric rail_fast ship" speed="12.26" length="3.52" shape="509630.80,5389684.25 509629.33,5389687.14 509629.14,5389687.34"/>
    </edge>
    <edge id=":1508836424_6" function="internal">
        <lane id=":1508836424_6_0" index="0" disallow="tram rail_urban rail rail_electric rail_fast ship" speed="12.26" length="13.15" shape="509629.14,5389687.34 509626.75,5389689.83 509623.08,5389692.29 509618.30,5389694.54"/>
    </edge>
    <edge id=":1508836424_2" function="internal">
        <lane id=":1508836424_2_0" index="0" disallow="tram rail_urban rail rail_electric rail_fast ship" speed="11.20" length="13.84" shape="509617.11,5389691.58 509621.24,5389689.67 509624.38,5389687.65 509626.55,5389685.53 509627.74,5389683.31"/>
    </edge>
    <edge id=":1508836424_3" function="internal">
        <lane id=":1508836424_3_0" index="0" disallow="tram rail_urban rail rail_electric rail_fast ship" speed="7.38" length="18.13" shape="509617.11,5389691.58 509622.56,5389690.12 509625.87,5389691.00 509627.02,5389694.22 509626.02,5389699.77"/>
    </edge>
    <edge id=":1508836424_4" function="internal">
        <lane id=":1508836424_4_0" index="0" disallow="tram rail_urban rail rail_electric rail_fast ship" speed="5.53" length="9.48" shape="509622.96,5389698.83 509623.48,5389695.93 509622.88,5389694.24 509621.15,5389693.78 509618.30,5389694.54"/>
    </edge>
    <edge id=":1508836424_5" function="internal">
        <lane id=":1508836424_5_0" index="0" disallow="tram rail_urban rail rail_electric rail_fast ship" speed="13.89" length="16.24" shape="509622.96,5389698.83 509627.74,5389683.31"/>
    </edge>
    <edge id=":1508836432_0" function="internal">
        <lane id=":1508836432_0_0" index="0" disallow="tram rail_urban rail rail_electric rail_fast ship" speed="10.40" length="6.51" shape="510252.95,5389849.00 510251.03,5389849.21 510249.70,5389849.45 510248.50,5389850.02 510247.02,5389851.20"/>
    </edge>
    <edge id=":1508836432_1" function="internal">
        <lane id=":1508836432_1_0" index="0" disallow="tram rail_urban rail rail_electric rail_fast ship" speed="4.82" length="2.80" shape="510252.95,5389849.00 510250.29,5389849.08 510250.16,5389849.02"/>
    </edge>
    <edge id=":1508836432_3" function="internal">
        <lane id=":1508836432_3_0" index="0" disallow="tram rail_urban rail rail_electric rail_fast ship" speed="4.82" length="4.98" shape="510250.16,5389849.02 510249.09,5389848.51 510249.35,5389847.30 510251.08,5389845.42"/>
    </edge>
    <edge id=":1508836432_2" function="internal">
        <lane id=":1508836432_2_0" index="0" disallow="tram rail_urban rail rail_electric rail_fast ship" speed="27.78" length="7.11" shape="510244.89,5389848.81 510246.60,5389847.62 510247.99,5389847.12 510249.37,5389846.62 510251.08,5389845.42"/>
    </edge>
    <edge id=":1508836435_0" function="internal">
        <lane id=":1508836435_0_0" index="0" disallow="tram rail_urban rail rail_electric rail_fast ship" speed="25.00" length="10.57" shape="510290.71,5389860.84 510285.41,5389869.98"/>
    </edge>
    <edge id=":1508836435_1" function="internal">
        <lane id=":1508836435_1_0" index="0" disallow="tram rail_urban rail rail_electric rail_fast ship" speed="7.19" length="2.44" shape="510290.71,5389860.84 510289.02,5389862.59"/>
    </edge>
    <edge id=":1508836435_4" function="internal">
        <lane id=":1508836435_4_0" index="0" disallow="tram rail_urban rail rail_electric rail_fast ship" speed="7.19" length="8.96" shape="510289.02,5389862.59 510286.77,5389863.20 510283.96,5389862.64 510280.60,5389860.92"/>
    </edge>
    <edge id=":1508836435_2" function="internal">