<?xml version="1.0" encoding="UTF-8"?>

<!-- generated on 2024-06-13 07:54:07 by Eclipse SUMO netedit Version 1.19.0
<configuration xmlns:xsi="http://www.w3.org/2001/XMLSchema-instance" xsi:noNamespaceSchemaLocation="http://sumo.dlr.de/xsd/neteditConfiguration.xsd">

    <input>
        <sumo-net-file value="/Users/zoltanvarga/Documents/Milestone-One/Network_and_config/arterial.net.xml"/>
    </input>

    <processing>
        <geometry.min-radius.fix.railways value="false"/>
        <geometry.max-grade.fix value="false"/>
        <offset.disable-normalization value="true"/>
        <lefthand value="0"/>
    </processing>

    <junctions>
        <no-turnarounds value="true"/>
        <junctions.corner-detail value="5"/>
        <junctions.limit-turn-speed value="5.50"/>
        <rectangular-lane-cut value="0"/>
    </junctions>

    <pedestrian>
        <walkingareas value="0"/>
    </pedestrian>

</configuration>
-->

<edges version="1.16" xmlns:xsi="http://www.w3.org/2001/XMLSchema-instance" xsi:noNamespaceSchemaLocation="http://sumo.dlr.de/xsd/edges_file.xsd">
    <edge id="np10_nt15" from="np10" to="nt15" priority="1" type="b" numLanes="1" speed="11.00" length="75.00"/>
    <edge id="np11_nt14" from="np11" to="nt14" priority="1" type="b" numLanes="1" speed="11.00" length="75.00"/>
    <edge id="np12_nt13" from="np12" to="nt13" priority="1" type="b" numLanes="1" speed="11.00" length="75.00"/>
    <edge id="np13_nt13" from="np13" to="nt13" priority="2" type="a" numLanes="2" speed="20.00"/>
    <edge id="np14_nt9" from="np14" to="nt9" priority="2" type="a" numLanes="2" speed="20.00"/>
    <edge id="np15_nt5" from="np15" to="nt5" priority="2" type="a" numLanes="2" speed="20.00"/>
    <edge id="np16_nt1" from="np16" to="nt1" priority="2" type="a" numLanes="2" speed="20.00"/>
    <edge id="np1_nt1" from="np1" to="nt1" priority="1" type="b" numLanes="1" speed="11.00"/>
    <edge id="np2_nt2" from="np2" to="nt2" priority="1" type="b" numLanes="1" speed="11.00"/>
    <edge id="np3_nt3" from="np3" to="nt3" priority="1" type="b" numLanes="1" speed="11.00"/>
    <edge id="np4_nt4" from="np4" to="nt4" priority="1" type="b" numLanes="1" speed="11.00"/>
    <edge id="np5_nt4" from="np5" to="nt4" priority="2" type="a" numLanes="2" speed="20.00" length="75.00"/>
    <edge id="np6_nt8" from="np6" to="nt8" priority="2" type="a" numLanes="2" speed="20.00" length="75.00"/>
    <edge id="np7_nt12" from="np7" to="nt12" priority="2" type="a" numLanes="2" speed="20.00" length="75.00"/>
    <edge id="np8_nt16" from="np8" to="nt16" priority="2" type="a" numLanes="2" speed="20.00" length="75.00"/>
    <edge id="np9_nt16" from="np9" to="nt16" priority="1" type="b" numLanes="1" speed="11.00" length="75.00"/>
    <edge id="nt10_nt11" from="nt10" to="nt11" priority="2" type="a" numLanes="2" speed="20.00"/>
    <edge id="nt10_nt14" from="nt10" to="nt14" priority="1" type="b" numLanes="1" speed="11.00"/>
    <edge id="nt10_nt6" from="nt10" to="nt6" priority="1" type="b" numLanes="1" speed="11.00"/>
    <edge id="nt10_nt9" from="nt10" to="nt9" priority="2" type="a" numLanes="2" speed="20.00"/>
    <edge id="nt11_nt10" from="nt11" to="nt10" priority="2" type="a" numLanes="2" speed="20.00"/>
    <edge id="nt11_nt12" from="nt11" to="nt12" priority="2" type="a" numLanes="2" speed="20.00"/>
    <edge id="nt11_nt15" from="nt11" to="nt15" priority="1" type="b" numLanes="1" speed="11.00"/>
    <edge id="nt11_nt7" from="nt11" to="nt7" priority="1" type="b" numLanes="1" speed="11.00"/>
    <edge id="nt12_np7" from="nt12" to="np7" priority="2" type="a" numLanes="2" speed="20.00" length="75.00"/>
    <edge id="nt12_nt11" from="nt12" to="nt11" priority="2" type="a" numLanes="2" speed="20.00"/>
    <edge id="nt12_nt16" from="nt12" to="nt16" priority="1" type="b" numLanes="1" speed="11.00"/>
    <edge id="nt12_nt8" from="nt12" to="nt8" priority="1" type="b" numLanes="1" speed="11.00"/>
    <edge id="nt13_np12" from="nt13" to="np12" priority="1" type="b" numLanes="1" speed="11.00" length="75.00"/>
    <edge id="nt13_np13" from="nt13" to="np13" priority="2" type="a" numLanes="2" speed="20.00"/>
    <edge id="nt13_nt14" from="nt13" to="nt14" priority="2" type="a" numLanes="2" speed="20.00"/>
    <edge id="nt13_nt9" from="nt13" to="nt9" priority="1" type="b" numLanes="1" speed="11.00"/>
    <edge id="nt14_np11" from="nt14" to="np11" priority="1" type="b" numLanes="1" speed="11.00" length="75.00"/>
    <edge id="nt14_nt10" from="nt14" to="nt10" priority="1" type="b" numLanes="1" speed="11.00"/>
    <edge id="nt14_nt13" from="nt14" to="nt13" priority="2" type="a" numLanes="2" speed="20.00"/>
    <edge id="nt14_nt15" from="nt14" to="nt15" priority="2" type="a" numLanes="2" speed="20.00"/>
    <edge id="nt15_np10" from="nt15" to="np10" priority="1" type="b" numLanes="1" speed="11.00" length="75.00"/>
    <edge id="nt15_nt11" from="nt15" to="nt11" priority="1" type="b" numLanes="1" speed="11.00"/>
    <edge id="nt15_nt14" from="nt15" to="nt14" priority="2" type="a" numLanes="2" speed="20.00"/>
    <edge id="nt15_nt16" from="nt15" to="nt16" priority="2" type="a" numLanes="2" speed="20.00"/>
    <edge id="nt16_np8" from="nt16" to="np8" priority="2" type="a" numLanes="2" speed="20.00" length="75.00"/>
    <edge id="nt16_np9" from="nt16" to="np9" priority="1" type="b" numLanes="1" speed="11.00" length="75.00"/>
    <edge id="nt16_nt12" from="nt16" to="nt12" priority="1" type="b" numLanes="1" speed="11.00"/>
    <edge id="nt16_nt15" from="nt16" to="nt15" priority="2" type="a" numLanes="2" speed="20.00"/>
    <edge id="nt1_np1" from="nt1" to="np1" priority="1" type="b" numLanes="1" speed="11.00"/>
    <edge id="nt1_np16" from="nt1" to="np16" priority="2" type="a" numLanes="2" speed="20.00"/>
    <edge id="nt1_nt2" from="nt1" to="nt2" priority="2" type="a" numLanes="2" speed="20.00"/>
    <edge id="nt1_nt5" from="nt1" to="nt5" priority="1" type="b" numLanes="1" speed="11.00"/>
    <edge id="nt2_np2" from="nt2" to="np2" priority="1" type="b" numLanes="1" speed="11.00"/>
    <edge id="nt2_nt1" from="nt2" to="nt1" priority="2" type="a" numLanes="2" speed="20.00"/>
    <edge id="nt2_nt3" from="nt2" to="nt3" priority="2" type="a" numLanes="2" speed="20.00"/>
    <edge id="nt2_nt6" from="nt2" to="nt6" priority="1" type="b" numLanes="1" speed="11.00"/>
    <edge id="nt3_np3" from="nt3" to="np3" priority="1" type="b" numLanes="1" speed="11.00"/>
    <edge id="nt3_nt2" from="nt3" to="nt2" priority="2" type="a" numLanes="2" speed="20.00"/>
    <edge id="nt3_nt4" from="nt3" to="nt4" priority="2" type="a" numLanes="2" speed="20.00"/>
    <edge id="nt3_nt7" from="nt3" to="nt7" priority="1" type="b" numLanes="1" speed="11.00"/>
    <edge id="nt4_np4" from="nt4" to="np4" priority="1" type="b" numLanes="1" speed="11.00"/>
    <edge id="nt4_np5" from="nt4" to="np5" priority="2" type="a" numLanes="2" speed="20.00" length="75.00"/>
    <edge id="nt4_nt3" from="nt4" to="nt3" priority="2" type="a" numLanes="2" speed="20.00"/>
    <edge id="nt4_nt8" from="nt4" to="nt8" priority="1" type="b" numLanes="1" speed="11.00"/>
    <edge id="nt5_np15" from="nt5" to="np15" priority="2" type="a" numLanes="2" speed="20.00"/>
    <edge id="nt5_nt1" from="nt5" to="nt1" priority="1" type="b" numLanes="1" speed="11.00"/>
    <edge id="nt5_nt6" from="nt5" to="nt6" priority="2" type="a" numLanes="2" speed="20.00"/>
    <edge id="nt5_nt9" from="nt5" to="nt9" priority="1" type="b" numLanes="1" speed="11.00"/>
    <edge id="nt6_nt10" from="nt6" to="nt10" priority="1" type="b" numLanes="1" speed="11.00"/>
    <edge id="nt6_nt2" from="nt6" to="nt2" priority="1" type="b" numLanes="1" speed="11.00"/>
    <edge id="nt6_nt5" from="nt6" to="nt5" priority="2" type="a" numLanes="2" speed="20.00"/>
    <edge id="nt6_nt7" from="nt6" to="nt7" priority="2" type="a" numLanes="2" speed="20.00"/>
    <edge id="nt7_nt11" from="nt7" to="nt11" priority="1" type="b" numLanes="1" speed="11.00"/>
    <edge id="nt7_nt3" from="nt7" to="nt3" priority="1" type="b" numLanes="1" speed="11.00"/>
    <edge id="nt7_nt6" from="nt7" to="nt6" priority="2" type="a" numLanes="2" speed="20.00"/>
    <edge id="nt7_nt8" from="nt7" to="nt8" priority="2" type="a" numLanes="2" speed="20.00"/>
    <edge id="nt8_np6" from="nt8" to="np6" priority="2" type="a" numLanes="2" speed="20.00" length="75.00"/>
    <edge id="nt8_nt12" from="nt8" to="nt12" priority="1" type="b" numLanes="1" speed="11.00"/>
    <edge id="nt8_nt4" from="nt8" to="nt4" priority="1" type="b" numLanes="1" speed="11.00"/>
    <edge id="nt8_nt7" from="nt8" to="nt7" priority="2" type="a" numLanes="2" speed="20.00"/>
    <edge id="nt9_np14" from="nt9" to="np14" priority="2" type="a" numLanes="2" speed="20.00"/>
    <edge id="nt9_nt10" from="nt9" to="nt10" priority="2" type="a" numLanes="2" speed="20.00"/>
    <edge id="nt9_nt13" from="nt9" to="nt13" priority="1" type="b" numLanes="1" speed="11.00"/>
    <edge id="nt9_nt5" from="nt9" to="nt5" priority="1" type="b" numLanes="1" speed="11.00"/>
</edges>
