<?xml version="1.0" encoding="UTF-8"?>

<!-- generated on 2025-02-05 23:51:16 by Eclipse SUMO netconvert Version 1.19.0
<configuration xmlns:xsi="http://www.w3.org/2001/XMLSchema-instance" xsi:noNamespaceSchemaLocation="http://sumo.dlr.de/xsd/netconvertConfiguration.xsd">

    <input>
        <sumo-net-file value="drt.net.xml"/>
    </input>

    <output>
        <plain-output-prefix value="drt"/>
        <output.street-names value="true"/>
    </output>

    <processing>
        <geometry.min-radius.fix.railways value="false"/>
        <geometry.max-grade.fix value="false"/>
        <offset.disable-normalization value="true"/>
        <lefthand value="0"/>
    </processing>

    <junctions>
        <no-turnarounds value="true"/>
        <junctions.corner-detail value="5"/>
        <junctions.limit-turn-speed value="5.50"/>
        <rectangular-lane-cut value="0"/>
    </junctions>

    <pedestrian>
        <walkingareas value="1"/>
    </pedestrian>

</configuration>
-->

<nodes version="1.16" xmlns:xsi="http://www.w3.org/2001/XMLSchema-instance" xsi:noNamespaceSchemaLocation="http://sumo.dlr.de/xsd/nodes_file.xsd">
    <location netOffset="-398790.46,-5809246.45" convBoundary="0.00,0.00,2628.33,3333.57" origBoundary="13.453860,52.424406,13.575739,52.459757" projParameter="+proj=utm +zone=33 +ellps=WGS84 +datum=WGS84 +units=m +no_defs"/>

    <node id="101343850" x="1537.12" y="794.58" type="priority"/>
    <node id="1077242930" x="1227.43" y="948.03" type="dead_end"/>
    <node id="1292264805" x="1260.98" y="472.35" type="priority"/>
    <node id="1292264830" x="1040.94" y="375.37" type="priority"/>
    <node id="1292264836" x="1104.69" y="367.59" type="right_before_left"/>
    <node id="1292264851" x="1146.77" y="265.62" type="priority"/>
    <node id="1292264931" x="1395.56" y="500.23" type="right_before_left"/>
    <node id="1292264935" x="1317.92" y="461.06" type="right_before_left"/>
    <node id="1292264938" x="1308.98" y="445.79" type="right_before_left"/>
    <node id="1292264947" x="1287.74" y="494.39" type="priority"/>
    <node id="1292268112" x="1366.58" y="437.71" type="priority"/>
    <node id="1292268136" x="1335.11" y="467.57" type="right_before_left"/>
    <node id="1292283250" x="1266.15" y="466.46" type="priority"/>
    <node id="1292283271" x="1281.05" y="479.18" type="priority"/>
    <node id="1293775012" x="1275.86" y="527.93" type="dead_end"/>
    <node id="1293775016" x="1296.93" y="502.83" type="priority"/>
    <node id="1293775032" x="1293.24" y="558.12" type="dead_end"/>
    <node id="1293775033" x="1300.27" y="549.39" type="dead_end"/>
    <node id="1293775041" x="1321.02" y="523.22" type="priority"/>
    <node id="1293775049" x="1318.04" y="579.07" type="dead_end"/>
    <node id="1293775050" x="1323.08" y="573.40" type="dead_end"/>
    <node id="1293775053" x="1346.55" y="545.27" type="priority"/>
    <node id="1293775055" x="1280.24" y="582.97" type="dead_end"/>
    <node id="1293775056" x="1268.32" y="536.78" type="dead_end"/>
    <node id="1293996758" x="1289.97" y="328.90" type="priority"/>
    <node id="1294963985" x="2148.88" y="314.08" type="dead_end"/>
    <node id="1294963989" x="2140.58" y="323.61" type="priority"/>
    <node id="1294964004" x="2139.46" y="291.30" type="dead_end"/>
    <node id="1294964106" x="2195.55" y="284.04" type="priority">
        <param key="buffer_stop" value="true"/>
    </node>
    <node id="1294964120" x="2164.80" y="292.53" type="dead_end"/>
    <node id="1294964126" x="2173.36" y="299.94" type="dead_end"/>
    <node id="1294964152" x="2152.66" y="257.43" type="dead_end"/>
    <node id="1294964159" x="2151.40" y="256.36" type="dead_end"/>
    <node id="1294964266" x="2173.46" y="275.74" type="dead_end"/>
    <node id="1294964322" x="2164.34" y="267.83" type="dead_end"/>
    <node id="1294964325" x="2168.61" y="271.54" type="dead_end"/>
    <node id="1294964388" x="2159.90" y="302.74" type="dead_end"/>
    <node id="1295543654" x="2133.72" y="301.31" type="dead_end"/>
    <node id="1295543671" x="2175.42" y="301.73" type="dead_end"/>
    <node id="1295543696" x="2187.02" y="293.84" type="right_before_left"/>
    <node id="1295543701" x="2185.03" y="288.39" type="dead_end"/>
    <node id="1295543710" x="2187.84" y="285.16" type="dead_end"/>
    <node id="1295543728" x="2155.63" y="251.49" type="dead_end"/>
    <node id="1295543734" x="2147.66" y="296.92" type="dead_end"/>
    <node id="1295543739" x="2148.95" y="293.20" type="dead_end"/>
    <node id="1295543745" x="2162.62" y="314.70" type="dead_end"/>
    <node id="1295543750" x="2160.41" y="301.85" type="dead_end"/>
    <node id="1295543752" x="2160.87" y="313.58" type="dead_end"/>
    <node id="1295543898" x="2157.14" y="300.35" type="dead_end"/>
    <node id="1295549694" x="2171.40" y="278.11" type="dead_end"/>
    <node id="1298547030" x="1569.75" y="351.98" type="priority"/>
    <node id="1298547031" x="1595.56" y="321.45" type="priority"/>
    <node id="1298547032" x="1574.56" y="301.58" type="priority"/>
    <node id="1298552121" x="1468.36" y="286.37" type="priority"/>
    <node id="1298598000" x="1264.31" y="487.15" type="priority"/>
    <node id="1301706434" x="1329.52" y="432.10" type="dead_end"/>
    <node id="1302814166" x="1112.39" y="431.46" type="right_before_left"/>
    <node id="1304505783" x="1241.43" y="402.05" type="priority"/>
    <node id="1308298539" x="1354.51" y="450.76" type="dead_end"/>
    <node id="1308298545" x="1426.27" y="488.62" type="priority"/>
    <node id="1308298546" x="1412.47" y="505.08" type="dead_end"/>
    <node id="1308298548" x="1401.27" y="493.86" type="dead_end"/>
    <node id="1309391689" x="2152.32" y="300.31" type="dead_end"/>
    <node id="1309393842" x="1274.30" y="358.98" type="priority"/>
    <node id="1309393864" x="1285.71" y="344.87" type="dead_end"/>
    <node id="1311767418" x="1328.29" y="384.07" type="dead_end"/>
    <node id="1311774266" x="1669.39" y="201.95" type="priority"/>
    <node id="1311774270" x="1695.71" y="199.16" type="priority"/>
    <node id="1311774301" x="1192.62" y="253.28" type="priority"/>
    <node id="1311777490" x="1399.18" y="231.83" type="priority"/>
    <node id="1312160363" x="1592.31" y="290.75" type="priority"/>
    <node id="1329311425" x="961.29" y="1043.73" type="priority"/>
    <node id="1330058768" x="1526.16" y="1277.14" type="priority"/>
    <node id="1370020134" x="1263.37" y="403.15" type="dead_end"/>
    <node id="1370020144" x="1134.26" y="603.01" type="right_before_left"/>
    <node id="1370020147" x="1144.38" y="574.71" type="priority"/>
    <node id="1370020149" x="1254.56" y="413.76" type="priority"/>
    <node id="1370020154" x="1158.73" y="612.76" type="right_before_left"/>
    <node id="1370020156" x="1151.75" y="650.47" type="priority"/>
    <node id="1371616211" x="1629.99" y="987.26" type="dead_end"/>
    <node id="1371616213" x="1214.33" y="432.30" type="dead_end"/>
    <node id="1371616214" x="1673.69" y="942.76" type="traffic_light" tl="joinedS_0" tlType="actuated" controlledInner="670062909#1"/>
    <node id="1371616215" x="1693.64" y="1021.04" type="dead_end"/>
    <node id="1371616216" x="1201.17" y="450.90" type="dead_end"/>
    <node id="1371616219" x="1210.65" y="429.83" type="dead_end"/>
    <node id="1371616225" x="1217.90" y="435.28" type="dead_end"/>
    <node id="1371616230" x="1170.97" y="365.39" type="right_before_left"/>
    <node id="1371616238" x="1199.49" y="388.75" type="priority"/>
    <node id="1392924658" x="1290.16" y="372.52" type="priority"/>
    <node id="1392924659" x="1340.23" y="415.23" type="priority"/>
    <node id="1392924660" x="994.46" y="505.25" type="priority"/>
    <node id="1410393659" x="1190.11" y="476.65" type="dead_end"/>
    <node id="1421174930" x="1242.06" y="460.91" type="dead_end"/>
    <node id="1421174940" x="1222.71" y="463.77" type="priority"/>
    <node id="1421174944" x="1231.78" y="471.22" type="priority"/>
    <node id="1421174961" x="1241.56" y="517.60" type="dead_end"/>
    <node id="1421174964" x="1228.64" y="522.93" type="dead_end"/>
    <node id="1421174967" x="1225.93" y="523.79" type="dead_end"/>
    <node id="1421174996" x="1203.75" y="803.50" type="priority"/>
    <node id="1421174997" x="1193.50" y="815.07" type="dead_end"/>
    <node id="1421174999" x="1203.54" y="823.23" type="dead_end"/>
    <node id="1421187870" x="1120.51" y="604.78" type="dead_end"/>
    <node id="1421187916" x="1594.08" y="685.60" type="dead_end"/>
    <node id="1421187922" x="1592.37" y="687.70" type="dead_end"/>
    <node id="1421187927" x="1568.50" y="703.83" type="dead_end"/>
    <node id="1421187971" x="2026.29" y="1111.03" type="dead_end"/>
    <node id="1433535022" x="2031.16" y="1211.06" type="dead_end"/>
    <node id="1433535024" x="2024.92" y="1218.52" type="dead_end"/>
    <node id="1451163369" x="1852.14" y="529.07" type="priority"/>
    <node id="1451163370" x="1710.07" y="679.13" type="dead_end"/>
    <node id="1451163371" x="1770.28" y="616.92" type="dead_end"/>
    <node id="1451166834" x="1769.38" y="793.15" type="priority"/>
    <node id="1451168462" x="1698.11" y="723.95" type="priority"/>
    <node id="1451168463" x="1786.76" y="633.41" type="dead_end"/>
    <node id="1464807662" x="1646.20" y="971.66" type="dead_end"/>
    <node id="1472995246" x="937.63" y="644.83" type="priority"/>
    <node id="1472995247" x="973.75" y="662.36" type="right_before_left"/>
    <node id="1472995250" x="842.89" y="689.66" type="priority"/>
    <node id="1472995254" x="904.33" y="710.09" type="dead_end"/>
    <node id="1472995255" x="915.80" y="715.31" type="dead_end"/>
    <node id="1472995256" x="920.37" y="717.09" type="dead_end"/>
    <node id="1472997321" x="1022.18" y="666.63" type="priority"/>
    <node id="1472997326" x="957.17" y="696.74" type="right_before_left"/>
    <node id="1472997330" x="945.83" y="703.70" type="priority"/>
    <node id="1474864406" x="1062.54" y="734.37" type="right_before_left"/>
    <node id="1474864422" x="1099.74" y="752.63" type="dead_end"/>
    <node id="150751448" x="2196.36" y="1036.32" type="priority"/>
    <node id="150753177" x="2335.23" y="856.67" type="dead_end"/>
    <node id="1523542379" x="1550.77" y="792.10" type="priority"/>
    <node id="1525212345" x="1978.35" y="1194.66" type="traffic_light" tl="1525212345" tlType="actuated"/>
    <node id="1534956057" x="2095.78" y="1104.50" type="dead_end"/>
    <node id="1534956067" x="2030.46" y="1175.47" type="dead_end"/>
    <node id="1535593165" x="2013.93" y="1195.40" type="dead_end"/>
    <node id="1535593166" x="2028.50" y="1184.76" type="dead_end"/>
    <node id="1535593183" x="2038.27" y="1182.41" type="dead_end"/>
    <node id="1535593185" x="2029.38" y="1185.55" type="dead_end"/>
    <node id="1535593192" x="2020.20" y="1195.71" type="dead_end"/>
    <node id="1535593213" x="2001.17" y="1216.08" type="dead_end"/>
    <node id="1535593214" x="2001.84" y="1216.68" type="dead_end"/>
    <node id="1535593215" x="1996.44" y="1221.38" type="dead_end"/>
    <node id="1535593217" x="2002.50" y="1217.28" type="dead_end"/>
    <node id="1535593218" x="1997.11" y="1221.97" type="dead_end"/>
    <node id="1535593221" x="1997.78" y="1222.56" type="dead_end"/>
    <node id="1537175113" x="1984.99" y="1183.61" type="dead_end"/>
    <node id="1537175119" x="1979.96" y="1191.98" type="dead_end"/>
    <node id="1560223241" x="2199.39" y="123.27" type="priority"/>
    <node id="1560223254" x="2061.56" y="134.84" type="priority"/>
    <node id="1560223271" x="2288.93" y="148.11" type="dead_end"/>
    <node id="1560223274" x="2064.02" y="158.38" type="priority"/>
    <node id="1560223298" x="2065.05" y="169.91" type="priority"/>
    <node id="1560223353" x="2066.29" y="197.93" type="priority"/>
    <node id="1560223378" x="1175.37" y="233.86" type="priority"/>
    <node id="1560223382" x="1191.06" y="232.34" type="priority"/>
    <node id="1560223447" x="1698.43" y="239.36" type="priority"/>
    <node id="1560223462" x="1672.44" y="241.80" type="priority"/>
    <node id="1560223464" x="2037.93" y="234.66" type="priority"/>
    <node id="1560223468" x="946.27" y="252.52" type="priority"/>
    <node id="1560223541" x="1986.05" y="293.77" type="priority"/>
    <node id="1560223552" x="2295.58" y="307.51" type="priority"/>
    <node id="1560223575" x="1016.82" y="364.59" type="priority"/>
    <node id="1560223591" x="749.51" y="390.19" type="priority"/>
    <node id="1560223615" x="862.98" y="399.64" type="priority"/>
    <node id="1560223633" x="1094.98" y="411.83" type="priority"/>
    <node id="1560223636" x="1898.81" y="398.41" type="priority"/>
    <node id="1560223649" x="2223.75" y="395.68" type="priority"/>
    <node id="1560223656" x="1352.92" y="426.05" type="priority"/>
    <node id="1560223728" x="1604.32" y="452.86" type="priority"/>
    <node id="1560223734" x="1254.12" y="462.33" type="priority"/>
    <node id="1560223749" x="1967.80" y="454.62" type="priority"/>
    <node id="1560223767" x="1413.29" y="477.55" type="priority"/>
    <node id="1560223783" x="1461.87" y="479.61" type="priority"/>
    <node id="1560223807" x="1914.91" y="480.65" type="right_before_left"/>
    <node id="1560223849" x="1937.24" y="499.35" type="right_before_left"/>
    <node id="1560223868" x="1884.87" y="515.95" type="priority"/>
    <node id="1560223869" x="1273.68" y="530.44" type="dead_end"/>
    <node id="1560223884" x="1476.29" y="530.66" type="priority"/>
    <node id="1560223890" x="1914.46" y="526.94" type="right_before_left"/>
    <node id="1560223894" x="1886.61" y="529.02" type="right_before_left"/>
    <node id="1560223905" x="736.79" y="559.71" type="priority"/>
    <node id="1560223910" x="1897.87" y="539.67" type="right_before_left"/>
    <node id="1560223912" x="1298.11" y="551.89" type="dead_end"/>
    <node id="1560223962" x="2092.68" y="554.70" type="priority"/>
    <node id="1560223964" x="1325.91" y="569.70" type="dead_end"/>
    <node id="1560223966" x="1883.72" y="559.40" type="priority"/>
    <node id="1560223979" x="1380.48" y="574.48" type="priority"/>
    <node id="1560223984" x="1745.82" y="574.84" type="priority"/>
    <node id="1560224004" x="1240.15" y="590.89" type="priority"/>
    <node id="1560224007" x="1737.07" y="585.49" type="priority"/>
    <node id="1560224022" x="1556.06" y="599.19" type="priority"/>
    <node id="1560224026" x="1414.05" y="602.84" type="priority"/>
    <node id="1560224076" x="1329.15" y="634.47" type="priority"/>
    <node id="1560224125" x="2021.45" y="634.79" type="priority"/>
    <node id="1560224141" x="1174.75" y="658.96" type="priority"/>
    <node id="1560224152" x="1170.53" y="666.99" type="priority"/>
    <node id="1560224186" x="1492.57" y="671.69" type="priority"/>
    <node id="1560224193" x="1989.33" y="667.23" type="priority"/>
    <node id="1560224201" x="1077.13" y="685.79" type="priority"/>
    <node id="1560224207" x="1655.16" y="682.25" type="priority"/>
    <node id="1560224319" x="1129.33" y="773.39" type="priority"/>
    <node id="1560224322" x="720.12" y="783.11" type="priority"/>
    <node id="1560224328" x="902.03" y="783.93" type="priority"/>
    <node id="1560224356" x="926.01" y="795.86" type="priority"/>
    <node id="1560224368" x="939.24" y="801.85" type="priority"/>
    <node id="1560224383" x="1554.83" y="796.01" type="priority"/>
    <node id="1560224385" x="1527.01" y="796.82" type="priority"/>
    <node id="1560224386" x="1102.78" y="805.86" type="priority"/>
    <node id="1560224389" x="1372.62" y="804.91" type="priority"/>
    <node id="1560224444" x="1002.06" y="833.41" type="priority"/>
    <node id="1560224468" x="1587.31" y="828.21" type="priority"/>
    <node id="1560224480" x="660.95" y="850.13" type="priority"/>
    <node id="1560224482" x="1620.11" y="831.39" type="priority"/>
    <node id="1560224485" x="1340.53" y="839.67" type="priority"/>
    <node id="1560224493" x="875.12" y="851.96" type="priority"/>
    <node id="1560224497" x="1572.68" y="841.88" type="priority"/>
    <node id="1560224500" x="1816.85" y="839.74" type="priority"/>
    <node id="1560224501" x="1605.19" y="845.94" type="priority"/>
    <node id="1560224502" x="1428.21" y="858.50" type="priority"/>
    <node id="1560224704" x="985.74" y="904.64" type="priority"/>
    <node id="1560224793" x="962.15" y="931.42" type="right_before_left"/>
    <node id="1560224850" x="1509.11" y="930.26" type="right_before_left"/>
    <node id="1560224927" x="779.73" y="957.47" type="priority"/>
    <node id="1560224950" x="939.92" y="955.93" type="priority"/>
    <node id="1560225233" x="899.15" y="1065.38" type="priority"/>
    <node id="1560225335" x="641.95" y="1109.35" type="priority"/>
    <node id="1560225398" x="1383.35" y="1148.19" type="priority"/>
    <node id="1560225516" x="818.92" y="1270.44" type="priority"/>
    <node id="1560225539" x="832.08" y="1282.30" type="priority"/>
    <node id="1560225541" x="1267.04" y="1273.68" type="priority"/>
    <node id="1560592055" x="1418.88" y="571.60" type="dead_end"/>
    <node id="1560592081" x="2003.40" y="231.19" type="priority"/>
    <node id="1560592097" x="1200.73" y="294.58" type="priority"/>
    <node id="1560592828" x="1331.94" y="696.43" type="priority"/>
    <node id="1560592888" x="1636.43" y="753.44" type="right_before_left"/>
    <node id="1560592900" x="1647.34" y="764.03" type="right_before_left"/>
    <node id="1568240850" x="1871.72" y="821.71" type="dead_end"/>
    <node id="1568240913" x="1846.82" y="790.77" type="dead_end"/>
    <node id="1568240933" x="1870.71" y="763.00" type="dead_end"/>
    <node id="1568240944" x="985.08" y="576.88" type="dead_end"/>
    <node id="1568241231" x="1106.76" y="16.44" type="priority"/>
    <node id="1568241232" x="1079.46" y="27.72" type="priority"/>
    <node id="1568241276" x="831.06" y="92.35" type="priority"/>
    <node id="1568241281" x="1001.89" y="126.92" type="priority"/>
    <node id="1568241285" x="944.02" y="132.85" type="right_before_left"/>
    <node id="1568241303" x="836.44" y="143.94" type="right_before_left"/>
    <node id="1568241348" x="1706.73" y="396.66" type="priority"/>
    <node id="1568241390" x="1566.97" y="497.14" type="priority"/>
    <node id="1568241419" x="1596.48" y="521.55" type="priority"/>
    <node id="1568241433" x="1538.93" y="530.05" type="priority"/>
    <node id="1568241476" x="915.98" y="568.11" type="priority"/>
    <node id="1568241535" x="1530.93" y="576.91" type="priority"/>
    <node id="1568241546" x="1011.15" y="588.98" type="right_before_left"/>
    <node id="1568241549" x="1036.41" y="590.23" type="priority"/>
    <node id="1568241558" x="1008.51" y="602.63" type="priority"/>
    <node id="1568241572" x="1609.42" y="594.82" type="priority"/>
    <node id="1568241573" x="1583.97" y="623.03" type="priority"/>
    <node id="1568241634" x="1196.29" y="706.80" type="right_before_left"/>
    <node id="1568241637" x="796.20" y="741.55" type="priority"/>
    <node id="1568241638" x="2014.42" y="717.48" type="right_before_left"/>
    <node id="1568241639" x="773.08" y="743.31" type="dead_end"/>
    <node id="1568241656" x="1999.33" y="732.06" type="right_before_left"/>
    <node id="1568241659" x="2141.67" y="743.65" type="priority"/>
    <node id="1568241661" x="1150.87" y="757.68" type="priority"/>
    <node id="1568241726" x="1882.29" y="774.93" type="priority"/>
    <node id="1568241740" x="1942.90" y="791.59" type="right_before_left"/>
    <node id="1568241746" x="1952.93" y="794.87" type="right_before_left"/>
    <node id="1568241761" x="1873.74" y="819.72" type="dead_end"/>
    <node id="1568241794" x="2012.61" y="856.52" type="priority"/>
    <node id="1568241835" x="1645.56" y="999.80" type="priority"/>
    <node id="1568241842" x="1621.59" y="1002.02" type="priority"/>
    <node id="1568241844" x="1612.37" y="1004.82" type="dead_end"/>
    <node id="1568241854" x="1611.43" y="1005.77" type="dead_end"/>
    <node id="1570019758" x="2215.08" y="436.73" type="dead_end"/>
    <node id="1570019801" x="1846.76" y="999.51" type="dead_end"/>
    <node id="1570019807" x="1814.92" y="971.89" type="dead_end"/>
    <node id="1570019818" x="1792.83" y="957.43" type="dead_end"/>
    <node id="1570019871" x="2206.71" y="416.27" type="priority"/>
    <node id="1570019875" x="2199.26" y="424.99" type="priority"/>
    <node id="1570019882" x="2212.09" y="434.45" type="priority"/>
    <node id="1570019925" x="2081.39" y="568.59" type="priority"/>
    <node id="1570019928" x="2112.58" y="571.18" type="priority"/>
    <node id="1570019953" x="2143.13" y="723.21" type="priority"/>
    <node id="1570019955" x="2089.98" y="737.83" type="priority"/>
    <node id="1570019959" x="1987.36" y="743.67" type="right_before_left"/>
    <node id="1570019969" x="2078.80" y="749.33" type="priority"/>
    <node id="1570019973" x="2110.22" y="757.23" type="right_before_left"/>
    <node id="1570019975" x="2099.18" y="768.64" type="right_before_left"/>
    <node id="1570019978" x="2200.32" y="778.86" type="priority"/>
    <node id="1570019994" x="2056.12" y="813.33" type="right_before_left"/>
    <node id="1570020011" x="2042.57" y="827.39" type="priority"/>
    <node id="1597984594" x="2416.84" y="783.95" type="dead_end"/>
    <node id="1597984743" x="1638.41" y="1706.37" type="dead_end"/>
    <node id="1610131628" x="1453.87" y="472.05" type="priority"/>
    <node id="1620151911" x="1362.02" y="417.60" type="dead_end"/>
    <node id="1625633828" x="2301.48" y="1102.36" type="priority"/>
    <node id="1652675073" x="2246.07" y="760.86" type="priority"/>
    <node id="1652675075" x="2017.82" y="951.79" type="priority"/>
    <node id="1652675093" x="1900.43" y="1077.96" type="priority"/>
    <node id="1652675104" x="1800.23" y="1188.27" type="priority"/>
    <node id="1652675106" x="1309.69" y="1234.53" type="priority"/>
    <node id="1652675108" x="1727.51" y="1270.04" type="priority"/>
    <node id="1652675109" x="1273.76" y="1287.24" type="priority"/>
    <node id="1652675118" x="1634.12" y="1375.06" type="priority"/>
    <node id="1652675134" x="1517.97" y="1505.67" type="priority"/>
    <node id="1653119660" x="1134.60" y="110.39" type="priority"/>
    <node id="1677246221" x="1693.99" y="176.28" type="priority"/>
    <node id="1677246223" x="1667.09" y="178.19" type="priority"/>
    <node id="1677246224" x="1633.77" y="180.61" type="priority"/>
    <node id="1677246246" x="1027.37" y="1050.60" type="priority"/>
    <node id="1682009714" x="1041.25" y="852.47" type="priority"/>
    <node id="1685653005" x="897.08" y="596.58" type="priority"/>
    <node id="1685653117" x="1118.52" y="732.94" type="right_before_left"/>
    <node id="1685653124" x="1085.79" y="797.18" type="right_before_left"/>
    <node id="1704693673" x="1619.25" y="872.65" type="traffic_light" tl="joinedS_1" tlType="actuated" controlledInner="206889079#7 220198808#4"/>
    <node id="1704693699" x="1632.56" y="891.09" type="traffic_light" tl="joinedS_1" tlType="actuated" controlledInner="206889079#7 220198808#4"/>
    <node id="1704693738" x="922.12" y="1037.13" type="priority"/>
    <node id="1704693825" x="1984.46" y="1190.47" type="priority"/>
    <node id="1853142980" x="1064.23" y="129.38" type="priority"/>
    <node id="1853142988" x="981.24" y="582.39" type="priority"/>
    <node id="1876073550" x="1236.24" y="833.84" type="dead_end"/>
    <node id="1876073554" x="1233.43" y="821.79" type="dead_end"/>
    <node id="1906399893" x="1855.52" y="1109.33" type="rail_signal"/>
    <node id="1906399894" x="2016.23" y="1103.10" type="dead_end"/>
    <node id="1906399902" x="1857.22" y="1107.07" type="rail_signal"/>
    <node id="1906421953" x="2113.03" y="1261.98" type="priority"/>
    <node id="1906421954" x="2117.55" y="1264.43" type="priority"/>
    <node id="1906421964" x="2155.99" y="1285.90" type="priority"/>
    <node id="1906421965" x="2144.11" y="1279.19" type="dead_end"/>
    <node id="1906766898" x="664.94" y="281.67" type="priority"/>
    <node id="1912546352" x="1175.32" y="1189.69" type="priority"/>
    <node id="1912649841" x="1176.20" y="1376.99" type="priority"/>
    <node id="1978018004" x="1304.86" y="1019.53" type="dead_end"/>
    <node id="1978018007" x="1287.91" y="1037.90" type="dead_end"/>
    <node id="1978634893" x="2282.90" y="1125.08" type="priority"/>
    <node id="1978634895" x="2196.23" y="1090.27" type="priority"/>
    <node id="2012430927" x="817.79" y="776.79" type="priority"/>
    <node id="2127600832" x="992.28" y="828.50" type="priority"/>
    <node id="2169462564" x="1879.58" y="1126.23" type="rail_signal"/>
    <node id="2177702831" x="781.27" y="816.32" type="dead_end"/>
    <node id="220496738" x="2228.05" y="1192.89" type="right_before_left"/>
    <node id="220496848" x="2288.86" y="1240.08" type="priority"/>
    <node id="2247697355" x="849.79" y="879.86" type="priority"/>
    <node id="2271597417" x="1460.36" y="560.05" type="dead_end"/>
    <node id="2293607210" x="2052.53" y="1062.13" type="priority"/>
    <node id="2293607214" x="2055.01" y="1064.15" type="priority"/>
    <node id="2335739518" x="618.32" y="277.97" type="dead_end"/>
    <node id="2391105433" x="2168.39" y="886.95" type="priority"/>
    <node id="2391105444" x="2158.57" y="928.78" type="right_before_left"/>
    <node id="2391105460" x="2079.29" y="1029.11" type="priority"/>
    <node id="2391105461" x="2083.25" y="1029.37" type="traffic_light" tl="GS_2391105461" tlType="actuated"/>
    <node id="246759510" x="10.65" y="3333.57" type="dead_end"/>
    <node id="246771374" x="2128.39" y="1100.17" type="traffic_light" tl="246771374" tlType="actuated"/>
    <node id="246772345" x="2327.60" y="781.94" type="dead_end"/>
    <node id="246772429" x="2617.29" y="461.16" type="dead_end"/>
    <node id="246772434" x="2628.33" y="471.35" type="dead_end"/>
    <node id="246772446" x="2046.12" y="1139.44" type="priority"/>
    <node id="252684013" x="1071.98" y="1499.01" type="dead_end"/>
    <node id="2531797962" x="1879.87" y="450.70" type="priority"/>
    <node id="2531797964" x="1888.72" y="553.37" type="priority"/>
    <node id="2531797968" x="1405.64" y="595.73" type="priority"/>
    <node id="2531797971" x="1381.96" y="622.31" type="priority"/>
    <node id="259404813" x="2251.13" y="1164.05" type="right_before_left"/>
    <node id="259404814" x="2175.92" y="1114.02" type="right_before_left"/>
    <node id="259404815" x="2124.73" y="1172.70" type="priority"/>
    <node id="259404816" x="2203.46" y="1223.01" type="right_before_left"/>
    <node id="260479916" x="1617.65" y="109.59" type="priority"/>
    <node id="260702833" x="807.06" y="148.13" type="priority"/>
    <node id="261020890" x="325.33" y="2996.56" type="dead_end"/>
    <node id="262064172" x="0.00" y="3323.63" type="dead_end"/>
    <node id="2627346822" x="2073.73" y="106.86" type="dead_end"/>
    <node id="2627346828" x="2076.81" y="133.10" type="priority"/>
    <node id="2627346831" x="1776.70" y="145.31" type="dead_end"/>
    <node id="2627346836" x="1796.41" y="164.37" type="priority"/>
    <node id="2627346838" x="1604.51" y="180.28" type="priority"/>
    <node id="2627346839" x="1544.12" y="185.62" type="priority"/>
    <node id="2627346841" x="1171.73" y="201.75" type="dead_end"/>
    <node id="2627346845" x="1395.96" y="202.17" type="priority"/>
    <node id="2627346846" x="1172.36" y="207.09" type="dead_end"/>
    <node id="2627346847" x="1605.77" y="209.90" type="priority"/>
    <node id="2627346848" x="1546.94" y="215.47" type="priority"/>
    <node id="2648328514" x="1806.30" y="1341.25" type="priority"/>
    <node id="2648427257" x="1018.59" y="1060.22" type="priority"/>
    <node id="2648427273" x="1169.70" y="1384.63" type="priority"/>
    <node id="2672786233" x="830.22" y="801.34" type="dead_end"/>
    <node id="2672786241" x="800.49" y="828.65" type="dead_end"/>
    <node id="268816953" x="1180.67" y="692.78" type="priority"/>
    <node id="269366968" x="1239.44" y="745.64" type="right_before_left"/>
    <node id="269366969" x="1195.15" y="796.06" type="right_before_left"/>
    <node id="269366971" x="968.99" y="740.75" type="right_before_left"/>
    <node id="269366975" x="1017.67" y="798.33" type="right_before_left"/>
    <node id="269366978" x="1002.71" y="756.16" type="right_before_left"/>
    <node id="2697454308" x="1230.45" y="583.39" type="priority"/>
    <node id="2697454313" x="1538.39" y="791.32" type="priority"/>
    <node id="270930931" x="1722.27" y="990.43" type="priority"/>
    <node id="270931592" x="1516.24" y="1077.24" type="priority"/>
    <node id="280095054" x="1012.59" y="40.42" type="priority"/>
    <node id="2820028448" x="1901.28" y="729.97" type="dead_end"/>
    <node id="283018514" x="1054.02" y="60.51" type="priority"/>
    <node id="283018841" x="1073.17" y="655.92" type="right_before_left"/>
    <node id="283018842" x="1032.40" y="644.51" type="right_before_left"/>
    <node id="283018844" x="955.34" y="608.10" type="right_before_left"/>
    <node id="283018845" x="914.02" y="579.91" type="priority"/>
    <node id="283018933" x="1092.43" y="627.76" type="priority"/>
    <node id="283018937" x="1060.17" y="674.45" type="priority"/>
    <node id="283719736" x="1604.72" y="640.82" type="priority"/>
    <node id="283720461" x="1575.38" y="616.08" type="priority"/>
    <node id="283721344" x="1572.44" y="654.53" type="dead_end"/>
    <node id="283721348" x="1550.87" y="605.05" type="priority"/>
    <node id="283721473" x="1558.25" y="694.91" type="priority"/>
    <node id="283722835" x="1565.83" y="701.67" type="dead_end"/>
    <node id="283722837" x="1531.78" y="666.78" type="dead_end"/>
    <node id="287944368" x="1562.12" y="631.00" type="dead_end"/>
    <node id="287944369" x="1579.02" y="670.55" type="priority"/>
    <node id="287944371" x="1588.98" y="998.94" type="priority"/>
    <node id="2881483062" x="883.05" y="1036.57" type="priority"/>
    <node id="2881483067" x="877.55" y="1045.86" type="priority"/>