<?xml version="1.0" encoding="UTF-8"?>

<!-- generated on 2025-02-05 23:51:16 by Eclipse SUMO netconvert Version 1.19.0
<configuration xmlns:xsi="http://www.w3.org/2001/XMLSchema-instance" xsi:noNamespaceSchemaLocation="http://sumo.dlr.de/xsd/netconvertConfiguration.xsd">

    <input>
        <sumo-net-file value="drt.net.xml"/>
    </input>

    <output>
        <plain-output-prefix value="drt"/>
        <output.street-names value="true"/>
    </output>

    <processing>
        <geometry.min-radius.fix.railways value="false"/>
        <geometry.max-grade.fix value="false"/>
        <offset.disable-normalization value="true"/>
        <lefthand value="0"/>
    </processing>

    <junctions>
        <no-turnarounds value="true"/>
        <junctions.corner-detail value="5"/>
        <junctions.limit-turn-speed value="5.50"/>
        <rectangular-lane-cut value="0"/>
    </junctions>

    <pedestrian>
        <walkingareas value="1"/>
    </pedestrian>

</configuration>
-->

<connections version="1.16" xmlns:xsi="http://www.w3.org/2001/XMLSchema-instance" xsi:noNamespaceSchemaLocation="http://sumo.dlr.de/xsd/connections_file.xsd">
    <connection from="-114024899" to="114024899" fromLane="0" toLane="0"/>

    <connection from="-114024901" to="114949101#1" fromLane="0" toLane="0"/>
    <connection from="-114024901" to="-114949101#0" fromLane="0" toLane="0"/>
    <connection from="-114024901" to="114024901" fromLane="0" toLane="0"/>

    <connection from="-114024903#0" to="582467484#1" fromLane="0" toLane="1"/>
    <connection from="-114024903#0" to="147859766" fromLane="0" toLane="1"/>
    <connection from="-114024903#0" to="-142575656#15" fromLane="0" toLane="1"/>
    <connection from="-114024903#0" to="-142575691#2" fromLane="0" toLane="1"/>
    <connection from="-114024903#0" to="114024903#0" fromLane="0" toLane="0"/>

    <connection from="-114024903#1" to="-114024903#0" fromLane="0" toLane="0"/>
    <connection from="-114024903#1" to="114024903#1" fromLane="0" toLane="0"/>

    <connection from="-114024903#2" to="-114024903#1" fromLane="0" toLane="0"/>
    <connection from="-114024903#2" to="114024903#2" fromLane="0" toLane="0"/>

    <connection from="-114024903#3" to="-114024903#2" fromLane="0" toLane="0"/>
    <connection from="-114024903#3" to="114024904" fromLane="0" toLane="0"/>
    <connection from="-114024903#3" to="114024903#3" fromLane="0" toLane="0"/>

    <connection from="-114024903#4" to="-114024903#3" fromLane="0" toLane="0"/>
    <connection from="-114024903#4" to="114024906" fromLane="0" toLane="0"/>
    <connection from="-114024903#4" to="114024903#4" fromLane="0" toLane="0"/>

    <connection from="-114024904" to="114024903#3" fromLane="0" toLane="0"/>
    <connection from="-114024904" to="-114024903#2" fromLane="0" toLane="0"/>
    <connection from="-114024904" to="114024904" fromLane="0" toLane="0"/>

    <connection from="-114024905" to="-38507369#0" fromLane="0" toLane="1"/>
    <connection from="-114024905" to="-115466410#1" fromLane="0" toLane="0"/>
    <connection from="-114024905" to="38507369#3" fromLane="0" toLane="1"/>
    <connection from="-114024905" to="-114024903#4" fromLane="0" toLane="0"/>
    <connection from="-114024905" to="114024905" fromLane="0" toLane="0"/>

    <connection from="-114024906" to="114024903#4" fromLane="0" toLane="0"/>
    <connection from="-114024906" to="-114024903#3" fromLane="0" toLane="0"/>
    <connection from="-114024906" to="114024906" fromLane="0" toLane="0"/>

    <connection from="-114207225" to="114207225" fromLane="0" toLane="0"/>

    <connection from="-114207227" to="114207227" fromLane="0" toLane="0"/>

    <connection from="-114207229" to="114207229" fromLane="0" toLane="0"/>

    <connection from="-114692703#0" to="114692703#0" fromLane="0" toLane="0"/>

    <connection from="-114692703#1" to="579026241" fromLane="0" toLane="0"/>
    <connection from="-114692703#1" to="-114692703#0" fromLane="0" toLane="0"/>
    <connection from="-114692703#1" to="114692703#1" fromLane="0" toLane="0"/>

    <connection from="-114697065#0" to="114693738" fromLane="0" toLane="0"/>

    <connection from="-114697065#1" to="-114697065#0" fromLane="0" toLane="0"/>
    <connection from="-114697065#1" to="617755663" fromLane="0" toLane="0"/>
    <connection from="-114697065#1" to="114697065#1" fromLane="0" toLane="0"/>

    <connection from="-114949101#0" to="-24214694#3" fromLane="0" toLane="1"/>
    <connection from="-114949101#0" to="24214694#4" fromLane="0" toLane="1"/>
    <connection from="-114949101#0" to="114024900" fromLane="0" toLane="0"/>

    <connection from="-114952399#0" to="-147859763#9" fromLane="0" toLane="1"/>
    <connection from="-114952399#0" to="-115227681" fromLane="0" toLane="0"/>
    <connection from="-114952399#0" to="172014854#0" fromLane="0" toLane="1"/>
    <connection from="-114952399#0" to="114207232" fromLane="0" toLane="0"/>

    <connection from="-115227681" to="-115227682#1" fromLane="0" toLane="0"/>
    <connection from="-115227681" to="115227682#2" fromLane="0" toLane="0"/>

    <connection from="-115227682#0" to="-26816590#0" fromLane="0" toLane="0"/>
    <connection from="-115227682#0" to="26816590#1" fromLane="0" toLane="0"/>
    <connection from="-115227682#0" to="-26816553" fromLane="0" toLane="0"/>

    <connection from="-115227682#1" to="122868966" fromLane="0" toLane="0"/>
    <connection from="-115227682#1" to="-115227682#0" fromLane="0" toLane="0"/>
    <connection from="-115227682#1" to="115227682#1" fromLane="0" toLane="0"/>

    <connection from="-115466410#0" to="115466410#0" fromLane="0" toLane="0"/>

    <connection from="-115466410#1" to="-115466410#0" fromLane="0" toLane="0"/>
    <connection from="-115466410#1" to="115466410#1" fromLane="0" toLane="0"/>

    <connection from="-116342915" to="147859765#1" fromLane="0" toLane="1"/>
    <connection from="-116342915" to="-147859765#0" fromLane="0" toLane="1"/>
    <connection from="-116342915" to="116342915" fromLane="0" toLane="0"/>

    <connection from="-116391654" to="172013798#2" fromLane="0" toLane="1"/>
    <connection from="-116391654" to="26991766#0" fromLane="0" toLane="1"/>
    <connection from="-116391654" to="-172013798#0" fromLane="0" toLane="1"/>
    <connection from="-116391654" to="116391654" fromLane="0" toLane="0"/>

    <connection from="-122666828#0" to="142575690#8" fromLane="0" toLane="1"/>
    <connection from="-122666828#0" to="-142575690#7" fromLane="0" toLane="0"/>
    <connection from="-122666828#0" to="122666828#0" fromLane="0" toLane="0"/>

    <connection from="-122666828#1" to="328287315" fromLane="0" toLane="0"/>
    <connection from="-122666828#1" to="-122666828#0" fromLane="0" toLane="0"/>
    <connection from="-122666828#1" to="122666828#1" fromLane="0" toLane="0"/>

    <connection from="-122666828#2" to="-122666828#1" fromLane="0" toLane="0"/>
    <connection from="-122666828#2" to="122666828#2" fromLane="0" toLane="0"/>

    <connection from="-122868966" to="-115227682#0" fromLane="0" toLane="0"/>
    <connection from="-122868966" to="115227682#1" fromLane="0" toLane="0"/>
    <connection from="-122868966" to="122868966" fromLane="0" toLane="0"/>

    <connection from="-125399001#0" to="314415495#5" fromLane="0" toLane="1"/>
    <connection from="-125399001#0" to="-314415495#4" fromLane="0" toLane="1"/>
    <connection from="-125399001#0" to="143482779#0" fromLane="0" toLane="0"/>
    <connection from="-125399001#0" to="26991669#1" fromLane="0" toLane="0"/>

    <connection from="-125399001#1" to="-320741892#2" fromLane="0" toLane="0"/>
    <connection from="-125399001#1" to="-125399001#0" fromLane="0" toLane="0"/>
    <connection from="-125399001#1" to="125399001#1" fromLane="0" toLane="0"/>

    <connection from="-125399001#2" to="-125399001#1" fromLane="0" toLane="0"/>
    <connection from="-125399001#2" to="143482759" fromLane="0" toLane="0"/>
    <connection from="-125399001#2" to="125399001#2" fromLane="0" toLane="0"/>

    <connection from="-125399001#3" to="-125399001#2" fromLane="0" toLane="0"/>
    <connection from="-125399001#3" to="125399001#3" fromLane="0" toLane="0"/>

    <connection from="-125399002#0" to="314415495#6" fromLane="0" toLane="1"/>
    <connection from="-125399002#0" to="38159999#0" fromLane="0" toLane="1"/>
    <connection from="-125399002#0" to="-314415495#5" fromLane="0" toLane="1"/>
    <connection from="-125399002#0" to="26991690" fromLane="0" toLane="0"/>

    <connection from="-125399002#1" to="-125399002#0" fromLane="0" toLane="0"/>
    <connection from="-125399002#1" to="125399002#1" fromLane="0" toLane="0"/>

    <connection from="-128643749" to="81096582#1" fromLane="0" toLane="0"/>
    <connection from="-128643749" to="-81096582#0" fromLane="0" toLane="0"/>
    <connection from="-128643749" to="128643749" fromLane="0" toLane="0"/>

    <connection from="-133858189" to="70214888#1" fromLane="0" toLane="0"/>
    <connection from="-133858189" to="-133858466" fromLane="0" toLane="0"/>
    <connection from="-133858189" to="-156071615#3" fromLane="0" toLane="0"/>
    <connection from="-133858189" to="133858189" fromLane="0" toLane="0"/>

    <connection from="-133858466" to="142575659#1" fromLane="0" toLane="1"/>
    <connection from="-133858466" to="-142575659#0" fromLane="0" toLane="0"/>
    <connection from="-133858466" to="133858466" fromLane="0" toLane="0"/>

    <connection from="-133858467#0" to="70214888#2" fromLane="0" toLane="0"/>
    <connection from="-133858467#0" to="-70214888#1" fromLane="0" toLane="0"/>
    <connection from="-133858467#0" to="133858467#0" fromLane="0" toLane="0"/>

    <connection from="-133858467#1" to="-133858467#2" fromLane="0" toLane="0"/>
    <connection from="-133858467#1" to="-133858467#0" fromLane="0" toLane="0"/>
    <connection from="-133858467#1" to="133858467#1" fromLane="0" toLane="0"/>

    <connection from="-133858467#2" to="-133858467#1" fromLane="0" toLane="0"/>

    <connection from="-135777010#0" to="115092088#0" fromLane="1" toLane="0"/>
    <connection from="-135777010#0" to="135777010#0" fromLane="1" toLane="1"/>

    <connection from="-135777010#1" to="-135777010#0" fromLane="1" toLane="1"/>
    <connection from="-135777010#1" to="-142575657#4" fromLane="1" toLane="1"/>
    <connection from="-135777010#1" to="135777010#1" fromLane="1" toLane="1"/>

    <connection from="-135777010#2" to="-135777010#1" fromLane="1" toLane="1"/>
    <connection from="-135777010#2" to="-142575684#5" fromLane="1" toLane="1"/>
    <connection from="-135777010#2" to="135777010#2" fromLane="1" toLane="1"/>

    <connection from="-135777010#3" to="38569946" fromLane="1" toLane="0"/>
    <connection from="-135777010#3" to="-135777010#2" fromLane="1" toLane="1"/>
    <connection from="-135777010#3" to="135777010#3" fromLane="1" toLane="1"/>

    <connection from="-135777010#4" to="-135777010#3" fromLane="1" toLane="1"/>
    <connection from="-135777010#4" to="52080902#0" fromLane="1" toLane="0"/>
    <connection from="-135777010#4" to="135777010#4" fromLane="1" toLane="1"/>

    <connection from="-135777010#5" to="-135777010#4" fromLane="1" toLane="1"/>
    <connection from="-135777010#5" to="135777010#5" fromLane="1" toLane="1"/>

    <connection from="-137482783#0" to="-137483015#0" fromLane="0" toLane="1"/>
    <connection from="-137482783#0" to="137483015#2" fromLane="0" toLane="1"/>
    <connection from="-137482783#0" to="114285336" fromLane="0" toLane="0"/>

    <connection from="-137482783#1" to="-137482783#0" fromLane="0" toLane="0"/>
    <connection from="-137482783#1" to="137482783#1" fromLane="0" toLane="0"/>

    <connection from="-137483014" to="-137483015#3" fromLane="1" toLane="1"/>
    <connection from="-137483014" to="356766925" fromLane="1" toLane="0"/>
    <connection from="-137483014" to="137483015#5" fromLane="1" toLane="1"/>

    <connection from="-137483015#0" to="-314415495#1" fromLane="1" toLane="1"/>
    <connection from="-137483015#0" to="314415495#2" fromLane="1" toLane="1"/>
    <connection from="-137483015#0" to="-142575709" fromLane="1" toLane="1"/>

    <connection from="-137483015#2" to="114285336" fromLane="1" toLane="0"/>
    <connection from="-137483015#2" to="-137483015#0" fromLane="1" toLane="1"/>
    <connection from="-137483015#2" to="137483015#2" fromLane="1" toLane="1"/>

    <connection from="-137483015#3" to="-137483015#2" fromLane="1" toLane="1"/>
    <connection from="-137483015#3" to="137483015#3" fromLane="1" toLane="1"/>

    <connection from="-142575655#0" to="-318210378#5" fromLane="1" toLane="1"/>
    <connection from="-142575655#0" to="-142575700#3" fromLane="1" toLane="1"/>
    <connection from="-142575655#0" to="38915290#0" fromLane="1" toLane="1"/>
    <connection from="-142575655#0" to="142575655#0" fromLane="1" toLane="1"/>

    <connection from="-142575655#1" to="-142575655#0" fromLane="1" toLane="1"/>
    <connection from="-142575655#1" to="142575655#1" fromLane="1" toLane="1"/>

    <connection from="-142575655#10" to="-142575655#9" fromLane="1" toLane="1"/>
    <connection from="-142575655#10" to="397678492" fromLane="1" toLane="0"/>
    <connection from="-142575655#10" to="142575655#10" fromLane="1" toLane="1"/>

    <connection from="-142575655#4" to="-142575687#1" fromLane="1" toLane="1"/>
    <connection from="-142575655#4" to="-142575655#1" fromLane="1" toLane="1"/>
    <connection from="-142575655#4" to="180789857#1" fromLane="1" toLane="0"/>
    <connection from="-142575655#4" to="142575655#4" fromLane="1" toLane="1"/>

    <connection from="-142575655#5" to="-69607706" fromLane="1" toLane="0"/>
    <connection from="-142575655#5" to="-142575655#4" fromLane="1" toLane="1"/>
    <connection from="-142575655#5" to="142575655#5" fromLane="1" toLane="1"/>

    <connection from="-142575655#6" to="69607702" fromLane="1" toLane="0"/>
    <connection from="-142575655#6" to="-142575655#5" fromLane="1" toLane="1"/>
    <connection from="-142575655#6" to="142575655#6" fromLane="1" toLane="1"/>

    <connection from="-142575655#7" to="-52081075#7" fromLane="1" toLane="1"/>
    <connection from="-142575655#7" to="-142575655#6" fromLane="1" toLane="1"/>
    <connection from="-142575655#7" to="52081075#8" fromLane="1" toLane="1"/>
    <connection from="-142575655#7" to="142575655#7" fromLane="1" toLane="1"/>

    <connection from="-142575655#8" to="-142575655#7" fromLane="1" toLane="1"/>
    <connection from="-142575655#8" to="142575655#8" fromLane="1" toLane="1"/>

    <connection from="-142575655#9" to="92914055#5" fromLane="1" toLane="0"/>
    <connection from="-142575655#9" to="-142575655#8" fromLane="1" toLane="1"/>
    <connection from="-142575655#9" to="142575655#9" fromLane="1" toLane="1"/>

    <connection from="-142575656#0" to="-314415495#15" fromLane="1" toLane="1"/>
    <connection from="-142575656#0" to="314415495#16" fromLane="1" toLane="1"/>
    <connection from="-142575656#0" to="142575656#0" fromLane="1" toLane="1"/>

    <connection from="-142575656#1" to="-142575656#0" fromLane="1" toLane="1"/>
    <connection from="-142575656#1" to="142575656#1" fromLane="1" toLane="1"/>

    <connection from="-142575656#10" to="-142575656#9" fromLane="1" toLane="1"/>
    <connection from="-142575656#10" to="142575656#10" fromLane="1" toLane="1"/>

    <connection from="-142575656#11" to="-142575656#10" fromLane="1" toLane="1"/>
    <connection from="-142575656#11" to="142575674#0" fromLane="1" toLane="1"/>
    <connection from="-142575656#11" to="142575656#11" fromLane="1" toLane="1"/>

    <connection from="-142575656#12" to="-143308686" fromLane="1" toLane="0"/>
    <connection from="-142575656#12" to="-142575656#11" fromLane="1" toLane="1"/>
    <connection from="-142575656#12" to="142575656#12" fromLane="1" toLane="1"/>

    <connection from="-142575656#14" to="143308505#0" fromLane="1" toLane="1"/>
    <connection from="-142575656#14" to="-142575656#12" fromLane="1" toLane="1"/>
    <connection from="-142575656#14" to="142575656#14" fromLane="1" toLane="1"/>

    <connection from="-142575656#15" to="-142575656#14" fromLane="1" toLane="1"/>
    <connection from="-142575656#15" to="-26843019#3" fromLane="1" toLane="0"/>
    <connection from="-142575656#15" to="142575656#15" fromLane="1" toLane="1"/>

    <connection from="-142575656#3" to="-142575656#1" fromLane="1" toLane="1"/>
    <connection from="-142575656#3" to="142575656#3" fromLane="1" toLane="1"/>

    <connection from="-142575656#5" to="-302943908#1" fromLane="1" toLane="0"/>
    <connection from="-142575656#5" to="-142575656#3" fromLane="1" toLane="1"/>
    <connection from="-142575656#5" to="-142575708#4" fromLane="1" toLane="0"/>
    <connection from="-142575656#5" to="142575656#5" fromLane="1" toLane="1"/>

    <connection from="-142575656#6" to="-142575656#5" fromLane="1" toLane="1"/>
    <connection from="-142575656#6" to="142575656#6" fromLane="1" toLane="1"/>

    <connection from="-142575656#7" to="142575704#2" fromLane="1" toLane="1"/>
    <connection from="-142575656#7" to="-142575656#6" fromLane="1" toLane="1"/>
    <connection from="-142575656#7" to="-142575704#1" fromLane="1" toLane="1"/>
    <connection from="-142575656#7" to="142575656#7" fromLane="1" toLane="1"/>

    <connection from="-142575656#8" to="-142575656#7" fromLane="1" toLane="1"/>
    <connection from="-142575656#8" to="26004868#0" fromLane="1" toLane="0"/>
    <connection from="-142575656#8" to="142575656#8" fromLane="1" toLane="1"/>

    <connection from="-142575656#9" to="143308646" fromLane="1" toLane="0"/>
    <connection from="-142575656#9" to="-142575656#8" fromLane="1" toLane="1"/>
    <connection from="-142575656#9" to="142575656#9" fromLane="1" toLane="1"/>

    <connection from="-142575657#0" to="-143308521#3" fromLane="1" toLane="1"/>
    <connection from="-142575657#0" to="143308521#4" fromLane="1" toLane="1"/>
    <connection from="-142575657#0" to="142575657#0" fromLane="1" toLane="1"/>

    <connection from="-142575657#1" to="-142575657#0" fromLane="1" toLane="1"/>
    <connection from="-142575657#1" to="142575731#0" fromLane="1" toLane="0"/>
    <connection from="-142575657#1" to="142575657#1" fromLane="1" toLane="1"/>

    <connection from="-142575657#2" to="207517674" fromLane="1" toLane="0"/>
    <connection from="-142575657#2" to="-142575657#1" fromLane="1" toLane="1"/>
    <connection from="-142575657#2" to="142575657#2" fromLane="1" toLane="1"/>

    <connection from="-142575657#3" to="-142575657#2" fromLane="1" toLane="1"/>
    <connection from="-142575657#3" to="115092088#2" fromLane="1" toLane="0"/>
    <connection from="-142575657#3" to="142575657#3" fromLane="1" toLane="1"/>

    <connection from="-142575657#4" to="142575662#2" fromLane="1" toLane="1"/>
    <connection from="-142575657#4" to="-142575657#3" fromLane="1" toLane="1"/>
    <connection from="-142575657#4" to="-142575662#1" fromLane="1" toLane="1"/>
    <connection from="-142575657#4" to="142575657#4" fromLane="1" toLane="1"/>

    <connection from="-142575658#0" to="142575658#0" fromLane="1" toLane="0"/>

    <connection from="-142575658#1" to="-143308562#6" fromLane="1" toLane="1"/>
    <connection from="-142575658#1" to="-142575658#0" fromLane="1" toLane="1"/>
    <connection from="-142575658#1" to="71595976" fromLane="1" toLane="0"/>
    <connection from="-142575658#1" to="142575658#1" fromLane="1" toLane="0"/>

    <connection from="-142575658#2" to="-142575658#1" fromLane="1" toLane="1"/>
    <connection from="-142575658#2" to="71596031" fromLane="1" toLane="0"/>
    <connection from="-142575658#2" to="142575658#2" fromLane="1" toLane="0"/>

    <connection from="-142575659#0" to="-71028774#1" fromLane="0" toLane="0"/>
    <connection from="-142575659#0" to="70133621#0" fromLane="0" toLane="0"/>
    <connection from="-142575659#0" to="142575659#0" fromLane="0" toLane="1"/>

    <connection from="-142575659#1" to="-142575659#0" fromLane="0" toLane="0"/>
    <connection from="-142575659#1" to="133858466" fromLane="0" toLane="0"/>
    <connection from="-142575659#1" to="142575659#1" fromLane="0" toLane="1"/>

    <connection from="-142575659#2" to="25944601#0" fromLane="0" toLane="0"/>
    <connection from="-142575659#2" to="-142575659#1" fromLane="0" toLane="0"/>
    <connection from="-142575659#2" to="-70214888#3" fromLane="0" toLane="0"/>
    <connection from="-142575659#2" to="142575659#2" fromLane="0" toLane="1"/>

    <connection from="-142575661#0" to="314415495#15" fromLane="1" toLane="1"/>
    <connection from="-142575661#0" to="-314415495#13" fromLane="1" toLane="1"/>
    <connection from="-142575661#0" to="142575661#0" fromLane="1" toLane="1"/>

    <connection from="-142575661#1" to="33690600" fromLane="1" toLane="1"/>
    <connection from="-142575661#1" to="-142575661#0" fromLane="1" toLane="1"/>
    <connection from="-142575661#1" to="143308497#1" fromLane="1" toLane="0"/>
    <connection from="-142575661#1" to="142575661#1" fromLane="1" toLane="1"/>

    <connection from="-142575661#2" to="-318210373#1" fromLane="1" toLane="1"/>
    <connection from="-142575661#2" to="-142575661#1" fromLane="1" toLane="1"/>
    <connection from="-142575661#2" to="142575661#2" fromLane="1" toLane="1"/>

    <connection from="-142575661#3" to="-142575661#2" fromLane="1" toLane="1"/>
    <connection from="-142575661#3" to="33690599#1" fromLane="1" toLane="0"/>
    <connection from="-142575661#3" to="142575661#3" fromLane="1" toLane="1"/>

    <connection from="-142575662#0" to="-142575684#4" fromLane="1" toLane="1"/>
    <connection from="-142575662#0" to="142575684#5" fromLane="1" toLane="1"/>
    <connection from="-142575662#0" to="142575662#0" fromLane="1" toLane="1"/>

    <connection from="-142575662#1" to="-284401908" fromLane="1" toLane="0"/>
    <connection from="-142575662#1" to="-142575662#0" fromLane="1" toLane="1"/>
    <connection from="-142575662#1" to="142575662#1" fromLane="1" toLane="1"/>

    <connection from="-142575662#2" to="-142575657#3" fromLane="1" toLane="1"/>
    <connection from="-142575662#2" to="-142575662#1" fromLane="1" toLane="1"/>
    <connection from="-142575662#2" to="142575657#4" fromLane="1" toLane="1"/>
    <connection from="-142575662#2" to="142575662#2" fromLane="1" toLane="1"/>

    <connection from="-142575672#2" to="52036180#1" fromLane="1" toLane="1"/>
    <connection from="-142575672#2" to="158236381" fromLane="1" toLane="1"/>
    <connection from="-142575672#2" to="52080655#0" fromLane="1" toLane="1"/>
    <connection from="-142575672#2" to="670062912#0" fromLane="2" toLane="2"/>
    <connection from="-142575672#2" to="142575672#0" fromLane="2" toLane="1"/>

    <connection from="-142575672#3" to="-142575672#2" fromLane="1" toLane="1"/>
    <connection from="-142575672#3" to="-142575672#2" fromLane="2" toLane="2"/>
    <connection from="-142575672#3" to="142575672#3" fromLane="2" toLane="1"/>

    <connection from="-142575673#0" to="142575673#0" fromLane="1" toLane="1"/>

    <connection from="-142575673#1" to="47765615#0" fromLane="1" toLane="0"/>
    <connection from="-142575673#1" to="-142575673#0" fromLane="1" toLane="1"/>
    <connection from="-142575673#1" to="142575673#1" fromLane="1" toLane="1"/>

    <connection from="-142575674#0" to="142575656#11" fromLane="1" toLane="1"/>
    <connection from="-142575674#0" to="-142575656#10" fromLane="1" toLane="1"/>
    <connection from="-142575674#0" to="142575674#0" fromLane="1" toLane="1"/>

    <connection from="-142575674#1" to="-142575674#0" fromLane="1" toLane="1"/>
    <connection from="-142575674#1" to="142575674#1" fromLane="1" toLane="1"/>

    <connection from="-142575674#2" to="-142575674#1" fromLane="1" toLane="1"/>
    <connection from="-142575674#2" to="142575674#2" fromLane="1" toLane="1"/>

    <connection from="-142575674#5" to="142575688#0" fromLane="1" toLane="1"/>
    <connection from="-142575674#5" to="-142575674#2" fromLane="1" toLane="1"/>
    <connection from="-142575674#5" to="-26004868#2" fromLane="1" toLane="0"/>
    <connection from="-142575674#5" to="142575674#3" fromLane="1" toLane="1"/>

    <connection from="-142575677#0" to="142575677#0" fromLane="1" toLane="1"/>

    <connection from="-142575677#1" to="-334308447#0" fromLane="1" toLane="1"/>
    <connection from="-142575677#1" to="-142575677#0" fromLane="1" toLane="1"/>
    <connection from="-142575677#1" to="334308447#1" fromLane="1" toLane="1"/>
    <connection from="-142575677#1" to="142575677#1" fromLane="1" toLane="1"/>

    <connection from="-142575677#2" to="-142575677#1" fromLane="1" toLane="1"/>
    <connection from="-142575677#2" to="-31100755#2" fromLane="1" toLane="0"/>
    <connection from="-142575677#2" to="142575677#2" fromLane="1" toLane="1"/>

    <connection from="-142575677#3" to="-142575677#2" fromLane="1" toLane="1"/>
    <connection from="-142575677#3" to="-45642424#1" fromLane="1" toLane="0"/>
    <connection from="-142575677#3" to="142575677#3" fromLane="1" toLane="1"/>

    <connection from="-142575684#0" to="-142575731#1" fromLane="1" toLane="0"/>
    <connection from="-142575684#0" to="142575685#0" fromLane="1" toLane="1"/>
    <connection from="-142575684#0" to="142575684#0" fromLane="1" toLane="1"/>

    <connection from="-142575684#1" to="-142575684#0" fromLane="1" toLane="1"/>
    <connection from="-142575684#1" to="142575684#1" fromLane="1" toLane="1"/>

    <connection from="-142575684#4" to="-142575684#1" fromLane="1" toLane="1"/>
    <connection from="-142575684#4" to="257072322#1" fromLane="1" toLane="0"/>
    <connection from="-142575684#4" to="142575684#4" fromLane="1" toLane="1"/>

    <connection from="-142575684#5" to="142575662#0" fromLane="1" toLane="1"/>
    <connection from="-142575684#5" to="-142575684#4" fromLane="1" toLane="1"/>
    <connection from="-142575684#5" to="142575684#5" fromLane="1" toLane="1"/>

    <connection from="-142575687#0" to="-142575710#0" fromLane="1" toLane="1"/>
    <connection from="-142575687#0" to="143308493#0" fromLane="1" toLane="1"/>
    <connection from="-142575687#0" to="142575710#2" fromLane="1" toLane="1"/>
    <connection from="-142575687#0" to="142575687#0" fromLane="1" toLane="1"/>

    <connection from="-142575687#1" to="-142575687#0" fromLane="1" toLane="1"/>
    <connection from="-142575687#1" to="142575687#1" fromLane="1" toLane="1"/>

    <connection from="-142575688#0" to="-142575674#2" fromLane="1" toLane="1"/>
    <connection from="-142575688#0" to="-26004868#2" fromLane="1" toLane="0"/>
    <connection from="-142575688#0" to="142575674#3" fromLane="1" toLane="1"/>
    <connection from="-142575688#0" to="142575688#0" fromLane="1" toLane="1"/>

    <connection from="-142575688#1" to="28888490#0" fromLane="1" toLane="0"/>
    <connection from="-142575688#1" to="-142575688#0" fromLane="1" toLane="1"/>
    <connection from="-142575688#1" to="142575688#1" fromLane="1" toLane="1"/>

    <connection from="-142575688#11" to="-142575688#8" fromLane="1" toLane="1"/>
    <connection from="-142575688#11" to="-114024899" fromLane="1" toLane="0"/>
    <connection from="-142575688#11" to="142575688#11" fromLane="1" toLane="1"/>

    <connection from="-142575688#12" to="-142575688#11" fromLane="1" toLane="1"/>
    <connection from="-142575688#12" to="142575688#12" fromLane="1" toLane="1"/>

    <connection from="-142575688#2" to="26843019#0" fromLane="1" toLane="0"/>
    <connection from="-142575688#2" to="-142575688#1" fromLane="1" toLane="1"/>
    <connection from="-142575688#2" to="142575688#2" fromLane="1" toLane="1"/>

    <connection from="-142575688#3" to="-142575688#2" fromLane="1" toLane="1"/>
    <connection from="-142575688#3" to="246099078" fromLane="1" toLane="0"/>
    <connection from="-142575688#3" to="142575688#3" fromLane="1" toLane="1"/>

    <connection from="-142575688#4" to="142575691#2" fromLane="1" toLane="1"/>
    <connection from="-142575688#4" to="-142575688#3" fromLane="1" toLane="1"/>
    <connection from="-142575688#4" to="-142575691#1" fromLane="1" toLane="1"/>
    <connection from="-142575688#4" to="142575688#4" fromLane="1" toLane="1"/>

    <connection from="-142575688#5" to="-142575688#4" fromLane="1" toLane="1"/>
    <connection from="-142575688#5" to="142575688#5" fromLane="1" toLane="1"/>

    <connection from="-142575688#6" to="-142575688#5" fromLane="1" toLane="1"/>
    <connection from="-142575688#6" to="142575688#6" fromLane="1" toLane="1"/>

    <connection from="-142575688#7" to="-142575688#6" fromLane="1" toLane="1"/>
    <connection from="-142575688#7" to="142575688#7" fromLane="1" toLane="1"/>

    <connection from="-142575688#8" to="-114024904" fromLane="1" toLane="0"/>
    <connection from="-142575688#8" to="-142575688#7" fromLane="1" toLane="1"/>
    <connection from="-142575688#8" to="142575688#8" fromLane="1" toLane="1"/>

    <connection from="-142575689" to="-52081075#3" fromLane="0" toLane="1"/>
    <connection from="-142575689" to="52081075#4" fromLane="0" toLane="1"/>
    <connection from="-142575689" to="142575689" fromLane="0" toLane="1"/>

    <connection from="-142575690#0" to="-143308562#2" fromLane="0" toLane="1"/>
    <connection from="-142575690#0" to="-142575673#1" fromLane="0" toLane="1"/>
    <connection from="-142575690#0" to="143308562#4" fromLane="0" toLane="1"/>
    <connection from="-142575690#0" to="142575690#0" fromLane="0" toLane="1"/>

    <connection from="-142575690#2" to="-543074338" fromLane="0" toLane="0"/>
    <connection from="-142575690#2" to="-142575690#0" fromLane="0" toLane="0"/>
    <connection from="-142575690#2" to="142575690#2" fromLane="0" toLane="1"/>

    <connection from="-142575690#3" to="-142575690#2" fromLane="0" toLane="0"/>
    <connection from="-142575690#3" to="143308628" fromLane="0" toLane="0"/>
    <connection from="-142575690#3" to="142575690#3" fromLane="0" toLane="1"/>

    <connection from="-142575690#5" to="-142575690#3" fromLane="0" toLane="0"/>
    <connection from="-142575690#5" to="47770431#1" fromLane="0" toLane="0"/>
    <connection from="-142575690#5" to="142575690#5" fromLane="0" toLane="1"/>
