<?xml version="1.0" encoding="UTF-8"?>

<!-- generated on 2025-02-05 23:51:16 by Eclipse SUMO netconvert Version 1.19.0
<configuration xmlns:xsi="http://www.w3.org/2001/XMLSchema-instance" xsi:noNamespaceSchemaLocation="http://sumo.dlr.de/xsd/netconvertConfiguration.xsd">

    <input>
        <sumo-net-file value="drt.net.xml"/>
    </input>

    <output>
        <plain-output-prefix value="drt"/>
        <output.street-names value="true"/>
    </output>

    <processing>
        <geometry.min-radius.fix.railways value="false"/>
        <geometry.max-grade.fix value="false"/>
        <offset.disable-normalization value="true"/>
        <lefthand value="0"/>
    </processing>

    <junctions>
        <no-turnarounds value="true"/>
        <junctions.corner-detail value="5"/>
        <junctions.limit-turn-speed value="5.50"/>
        <rectangular-lane-cut value="0"/>
    </junctions>

    <pedestrian>
        <walkingareas value="1"/>
    </pedestrian>

</configuration>
-->

<edges version="1.16" xmlns:xsi="http://www.w3.org/2001/XMLSchema-instance" xsi:noNamespaceSchemaLocation="http://sumo.dlr.de/xsd/edges_file.xsd">
    <location netOffset="-398790.46,-5809246.45" convBoundary="0.00,0.00,2628.33,3333.57" origBoundary="13.453860,52.424406,13.575739,52.459757" projParameter="+proj=utm +zone=33 +ellps=WGS84 +datum=WGS84 +units=m +no_defs"/>

    <edge id="-114024899" from="cluster_1292264813_1292264824_1421174953" to="1298598000" priority="2" type="highway.service" numLanes="1" speed="5.56" shape="1269.92,479.97 1264.31,487.15" allow="pedestrian bus delivery bicycle">
        <lane index="0">
            <param key="origId" value="114024899"/>
        </lane>
        <param key="origFrom" value="1292264824"/>
    </edge>
    <edge id="-114024901" from="1292264851" to="1292264836" name="Albert-Einstein-Straße" priority="2" type="highway.service" numLanes="1" speed="8.33" shape="1146.77,265.62 1102.99,271.28 1097.41,275.39 1094.58,281.32 1104.69,367.59" allow="pedestrian bus delivery bicycle">
        <lane index="0">
            <param key="origId" value="114024901"/>
        </lane>
    </edge>
    <edge id="-114024903#0" from="1292264931" to="cluster_1292264930_1311765040_1610131638_350553969_5546255285_5546255410" priority="2" type="highway.service" numLanes="1" speed="5.56" shape="1395.56,500.23 1416.02,517.75 1423.69,524.32" allow="pedestrian bus delivery bicycle">
        <lane index="0">
            <param key="origId" value="114024903"/>
        </lane>
        <param key="origTo" value="1292264930"/>
    </edge>
    <edge id="-114024903#1" from="1292268136" to="1292264931" priority="2" type="highway.service" numLanes="1" speed="5.56" shape="1335.11,467.57 1384.12,512.11 1395.56,500.23" allow="pedestrian bus delivery bicycle">
        <lane index="0">
            <param key="origId" value="114024903"/>
        </lane>
    </edge>
    <edge id="-114024903#2" from="1292264935" to="1292268136" priority="2" type="highway.service" numLanes="1" speed="5.56" shape="1317.92,461.06 1322.82,460.04 1326.28,460.74 1335.11,467.57" allow="pedestrian bus delivery bicycle">
        <lane index="0">
            <param key="origId" value="114024903"/>
        </lane>
    </edge>
    <edge id="-114024903#3" from="1292264938" to="1292264935" priority="2" type="highway.service" numLanes="1" speed="5.56" shape="1308.98,445.79 1317.13,452.43 1318.86,457.52 1317.92,461.06" allow="pedestrian bus delivery bicycle">
        <lane index="0">
            <param key="origId" value="114024903"/>
        </lane>
    </edge>
    <edge id="-114024903#4" from="cluster_1292264941_1292264943_1301707116_1304505782" to="1292264938" priority="2" type="highway.service" numLanes="1" speed="5.56" shape="1294.57,433.59 1308.98,445.79" allow="pedestrian bus delivery bicycle">
        <lane index="0">
            <param key="origId" value="114024903"/>
        </lane>
        <param key="origFrom" value="1292264941"/>
    </edge>
    <edge id="-114024904" from="1292264947" to="1292264935" priority="2" type="highway.service" numLanes="1" speed="5.56" shape="1287.74,494.39 1314.10,463.26 1317.92,461.06" allow="pedestrian bus delivery bicycle">
        <lane index="0">
            <param key="origId" value="114024904"/>
        </lane>
    </edge>
    <edge id="-114024905" from="1292283250" to="cluster_1292264941_1292264943_1301707116_1304505782" priority="2" type="highway.service" numLanes="1" speed="5.56" shape="1266.15,466.46 1288.42,440.08 1294.57,433.59" allow="pedestrian bus delivery bicycle">
        <lane index="0">
            <param key="origId" value="114024905"/>
        </lane>
        <param key="origTo" value="1292264941"/>
    </edge>
    <edge id="-114024906" from="1292283271" to="1292264938" priority="2" type="highway.service" numLanes="1" speed="5.56" shape="1281.05,479.18 1303.49,452.56 1308.98,445.79" allow="pedestrian bus delivery bicycle">
        <lane index="0">
            <param key="origId" value="114024906"/>
        </lane>
    </edge>
    <edge id="-114207225" from="cluster_1293996765_1293996771_1298595250_1560223550" to="1293996758" priority="2" type="highway.service" numLanes="1" speed="5.56" shape="1287.73,326.77 1289.97,328.90" allow="pedestrian bus delivery bicycle">
        <lane index="0">
            <param key="origId" value="114207225"/>
        </lane>
        <param key="origFrom" value="1560223550"/>
    </edge>
    <edge id="-114207227" from="cluster_1293996765_1293996771_1298595250_1560223550" to="5839442293" priority="2" type="highway.service" numLanes="1" speed="5.56" shape="1293.61,319.72 1269.14,297.91" allow="pedestrian bus delivery bicycle">
        <lane index="0">
            <param key="origId" value="114207227"/>
        </lane>
        <param key="origFrom" value="1293996765"/>
    </edge>
    <edge id="-114207229" from="cluster_1293996765_1293996771_1298595250_1560223550" to="5839442294" priority="2" type="highway.service" numLanes="1" speed="5.56" shape="1281.95,333.71 1257.23,311.65" allow="pedestrian bus delivery bicycle">
        <lane index="0">
            <param key="origId" value="114207229"/>
        </lane>
        <param key="origFrom" value="1293996771"/>
    </edge>
    <edge id="-114692703#0" from="5546255414" to="726149638" priority="2" type="highway.service" numLanes="1" speed="5.56" allow="pedestrian bus delivery bicycle">
        <lane index="0">
            <param key="origId" value="114692703"/>
        </lane>
    </edge>
    <edge id="-114692703#1" from="1298547030" to="5546255414" priority="2" type="highway.service" numLanes="1" speed="5.56" shape="1569.75,351.98 1562.67,346.30 1557.50,342.15" allow="pedestrian bus delivery bicycle">
        <lane index="0">
            <param key="origId" value="114692703"/>
        </lane>
    </edge>
    <edge id="-114697065#0" from="5839442292" to="1298552121" priority="2" type="highway.service" numLanes="1" speed="5.56" shape="1313.41,323.25 1326.68,335.65 1356.77,360.71 1365.00,359.17 1370.61,355.75 1376.53,348.28 1379.71,338.17 1387.50,324.19 1401.03,310.56 1408.41,305.62 1416.66,301.39 1468.36,286.37" allow="pedestrian bus delivery bicycle">
        <lane index="0">
            <param key="origId" value="114697065 116174126 114693738"/>
        </lane>
    </edge>
    <edge id="-114697065#1" from="cluster_1293996765_1293996771_1298595250_1560223550" to="5839442292" priority="2" type="highway.service" numLanes="1" speed="5.56" shape="1300.62,311.30 1313.41,323.25" allow="pedestrian bus delivery bicycle">
        <lane index="0">
            <param key="origId" value="114697065"/>
        </lane>
        <param key="origFrom" value="1298595250"/>
    </edge>
    <edge id="-114949101#0" from="1292264836" to="1292264830" name="Albert-Einstein-Straße" priority="2" type="highway.service" numLanes="1" speed="8.33" shape="1104.69,367.59 1054.61,373.71 1040.94,375.37" allow="pedestrian bus delivery bicycle">
        <lane index="0">
            <param key="origId" value="114949101 114024900"/>
        </lane>
    </edge>
    <edge id="-114952399#0" from="cluster_1293996765_1293996771_1298595250_1560223550" to="294168972" priority="2" type="highway.service" numLanes="1" speed="5.56" shape="1281.95,333.71 1275.90,340.98 1273.89,343.39 1272.78,344.72 1266.47,352.31" allow="pedestrian bus delivery bicycle">
        <lane index="0">
            <param key="origId" value="114952399 172014857 114207232"/>
        </lane>
        <param key="origFrom" value="1293996771"/>
    </edge>
    <edge id="-115227681" from="294168972" to="294168971" priority="2" type="highway.service" numLanes="1" speed="5.56" shape="1266.47,352.31 1261.23,357.56 1252.05,367.69 1242.76,378.20 1239.28,379.43 1235.14,378.59" allow="pedestrian bus delivery bicycle">
        <lane index="0">
            <param key="origId" value="115227681 115227682"/>
        </lane>
    </edge>
    <edge id="-115227682#0" from="1371616230" to="1302814166" priority="2" type="highway.service" numLanes="1" speed="5.56" shape="1170.97,365.39 1116.04,430.23 1112.39,431.46" allow="pedestrian bus delivery bicycle">
        <lane index="0">
            <param key="origId" value="115227682 26816553"/>
        </lane>
    </edge>
    <edge id="-115227682#1" from="294168971" to="1371616230" priority="2" type="highway.service" numLanes="1" speed="5.56" shape="1235.14,378.59 1188.93,342.33 1170.97,365.39" allow="pedestrian bus delivery bicycle">
        <lane index="0">
            <param key="origId" value="115227682"/>
        </lane>
    </edge>
    <edge id="-115466410#0" from="1370020149" to="1304505783" priority="2" type="highway.service" numLanes="1" speed="5.56" allow="pedestrian bus delivery bicycle">
        <lane index="0">
            <param key="origId" value="115466410"/>
        </lane>
    </edge>
    <edge id="-115466410#1" from="cluster_1292264941_1292264943_1301707116_1304505782" to="1370020149" priority="2" type="highway.service" numLanes="1" speed="5.56" shape="1276.67,431.93 1254.56,413.76" allow="pedestrian bus delivery bicycle">
        <lane index="0">
            <param key="origId" value="115466410"/>
        </lane>
        <param key="origFrom" value="1304505782"/>
    </edge>
    <edge id="-116342915" from="1610131628" to="1560223783" priority="2" type="highway.service" numLanes="1" speed="5.56" allow="pedestrian bus delivery bicycle">
        <lane index="0">
            <param key="origId" value="116342915"/>
        </lane>
    </edge>
    <edge id="-116391654" from="1312160363" to="cluster_1299913222_1560223542" priority="2" type="highway.service" numLanes="1" speed="5.56" shape="1592.31,290.75 1603.60,299.30 1610.62,304.62" allow="pedestrian bus delivery bicycle">
        <lane index="0">
            <param key="origId" value="116391654"/>
        </lane>
        <param key="origTo" value="1560223542"/>
    </edge>
    <edge id="-122666828#0" from="1370020154" to="1370020156" priority="2" type="highway.service" numLanes="1" speed="5.56" shape="1158.73,612.76 1162.71,620.80 1154.66,643.12 1151.75,650.47" allow="pedestrian bus delivery bicycle">
        <lane index="0">
            <param key="origId" value="122666828"/>
        </lane>
    </edge>
    <edge id="-122666828#1" from="1370020144" to="1370020154" priority="2" type="highway.service" numLanes="1" speed="5.56" allow="pedestrian bus delivery bicycle">
        <lane index="0">
            <param key="origId" value="122666828"/>
        </lane>
    </edge>
    <edge id="-122666828#2" from="1370020147" to="1370020144" priority="2" type="highway.service" numLanes="1" speed="5.56" allow="pedestrian bus delivery bicycle">
        <lane index="0">
            <param key="origId" value="122666828"/>
        </lane>
    </edge>
    <edge id="-122868966" from="1371616238" to="1371616230" priority="2" type="highway.service" numLanes="1" speed="5.56" allow="pedestrian bus delivery bicycle">
        <lane index="0">
            <param key="origId" value="122868966"/>
        </lane>
    </edge>
    <edge id="-125399001#0" from="295850645" to="cluster_1570019888_295850214" name="Am Studio" priority="2" type="highway.service" numLanes="1" speed="8.33" shape="2243.69,530.38 2190.19,489.90 2180.82,485.53 2168.83,480.17" allow="pedestrian bus delivery bicycle">
        <lane index="0">
            <param key="origId" value="125399001 26991669"/>
        </lane>
        <param key="origTo" value="1570019888"/>
    </edge>
    <edge id="-125399001#1" from="295850513" to="295850645" name="Am Studio" priority="2" type="highway.service" numLanes="1" speed="8.33" shape="2254.86,721.79 2269.99,710.33 2288.34,683.29 2292.08,653.55 2296.41,619.82 2294.89,605.31 2285.83,588.01 2264.79,572.43 2265.24,553.94 2265.33,551.17 2264.99,549.69 2264.10,547.39 2243.69,530.38" allow="pedestrian bus delivery bicycle">
        <lane index="0">
            <param key="origId" value="125399001"/>
        </lane>
    </edge>
    <edge id="-125399001#2" from="5579116775" to="295850513" name="Am Studio" priority="2" type="highway.service" numLanes="1" speed="8.33" allow="pedestrian bus delivery bicycle">
        <lane index="0">
            <param key="origId" value="125399001"/>
        </lane>
    </edge>
    <edge id="-125399001#3" from="295850640" to="5579116775" name="Am Studio" priority="2" type="highway.service" numLanes="1" speed="8.33" shape="2122.15,579.11 2112.60,591.43 2169.31,643.39" allow="pedestrian bus delivery bicycle">
        <lane index="0">
            <param key="origId" value="125399001"/>
        </lane>
    </edge>
    <edge id="-125399002#0" from="1570019928" to="1560223962" name="Am Studio" priority="2" type="highway.service" numLanes="1" speed="8.33" shape="2112.58,571.18 2110.07,569.10 2098.95,559.89 2092.68,554.70" allow="pedestrian bus delivery bicycle">
        <lane index="0">
            <param key="origId" value="125399002 26991690"/>
        </lane>
    </edge>
    <edge id="-125399002#1" from="295850640" to="1570019928" name="Am Studio" priority="2" type="highway.service" numLanes="1" speed="8.33" shape="2122.15,579.11 2115.53,573.62 2112.58,571.18" allow="pedestrian bus delivery bicycle">
        <lane index="0">
            <param key="origId" value="125399002"/>
        </lane>
    </edge>
    <edge id="-128643749" from="1421174940" to="1421174944" priority="2" type="highway.service" numLanes="1" speed="5.56" allow="pedestrian bus delivery bicycle">
        <lane index="0">
            <param key="origId" value="128643749"/>
        </lane>
    </edge>
    <edge id="-133858189" from="837749843" to="cluster_1472995248_1472997323_837749842" priority="2" type="highway.service" numLanes="1" speed="5.56" shape="1000.52,705.03 1011.51,680.99" allow="pedestrian bus delivery bicycle">
        <lane index="0">
            <param key="origId" value="133858189"/>
        </lane>
        <param key="origTo" value="1472995248"/>
    </edge>
    <edge id="-133858466" from="cluster_1472995248_1472997323_837749842" to="1472997321" priority="2" type="highway.service" numLanes="1" speed="5.56" shape="1014.10,682.21 1022.18,666.63" allow="pedestrian bus delivery bicycle">
        <lane index="0">
            <param key="origId" value="133858466"/>
        </lane>
        <param key="origFrom" value="1472997323"/>
    </edge>
    <edge id="-133858467#0" from="1472997326" to="1472995247" priority="2" type="highway.service" numLanes="1" speed="5.56" allow="pedestrian bus delivery bicycle">
        <lane index="0">
            <param key="origId" value="133858467"/>
        </lane>
    </edge>
    <edge id="-133858467#1" from="1472997330" to="1472997326" priority="2" type="highway.service" numLanes="1" speed="5.56" shape="945.83,703.70 956.21,708.55 961.16,698.60 957.17,696.74" allow="pedestrian bus delivery bicycle">
        <lane index="0">
            <param key="origId" value="133858467"/>
        </lane>
    </edge>
    <edge id="-133858467#2" from="1472997326" to="1472997330" priority="2" type="highway.service" numLanes="1" speed="5.56" shape="957.17,696.74 950.78,693.75 945.83,703.70" allow="pedestrian bus delivery bicycle">
        <lane index="0">
            <param key="origId" value="133858467"/>
        </lane>
    </edge>
    <edge id="-135777010#0" from="1560225335" to="456893959" name="Hermann-Dorner-Allee" priority="6" type="highway.tertiary" numLanes="2" speed="13.89" shape="641.95,1109.35 635.21,1103.45 578.81,1052.17 530.01,1007.60 523.09,1000.96 517.05,995.55 480.77,962.97 478.33,959.12 475.50,954.64 472.19,946.08 470.06,936.44 470.83,926.52 494.95,794.63">
        <lane index="0" allow="pedestrian" width="3.00">
            <param key="origId" value="135777010"/>
        </lane>
        <lane index="1" disallow="pedestrian tram rail_urban rail rail_electric rail_fast ship">
            <param key="origId" value="135777010"/>
        </lane>
    </edge>
    <edge id="-135777010#1" from="664166107" to="1560225335" name="Hermann-Dorner-Allee" priority="6" type="highway.tertiary" numLanes="2" speed="13.89" shape="760.56,1217.32 754.61,1211.99 733.86,1193.98 705.68,1167.50 647.79,1114.70 641.95,1109.35">
        <lane index="0" allow="pedestrian" width="3.00">
            <param key="origId" value="135777010"/>
        </lane>
        <lane index="1" disallow="pedestrian tram rail_urban rail rail_electric rail_fast ship">
            <param key="origId" value="135777010"/>
        </lane>
    </edge>
    <edge id="-135777010#2" from="1560225516" to="664166107" name="Hermann-Dorner-Allee" priority="6" type="highway.tertiary" numLanes="2" speed="13.89" shape="818.92,1270.44 767.21,1223.50 760.56,1217.32">
        <lane index="0" allow="pedestrian" width="3.00">
            <param key="origId" value="135777010"/>
        </lane>
        <lane index="1" disallow="pedestrian tram rail_urban rail rail_electric rail_fast ship">
            <param key="origId" value="135777010"/>
        </lane>
    </edge>
    <edge id="-135777010#3" from="663783991" to="1560225516" name="Hermann-Dorner-Allee" priority="6" type="highway.tertiary" numLanes="2" speed="13.89">
        <lane index="0" allow="pedestrian" width="3.00">
            <param key="origId" value="135777010"/>
        </lane>
        <lane index="1" disallow="pedestrian tram rail_urban rail rail_electric rail_fast ship">
            <param key="origId" value="135777010"/>
        </lane>
    </edge>
    <edge id="-135777010#4" from="1560225539" to="663783991" name="Hermann-Dorner-Allee" priority="6" type="highway.tertiary" numLanes="2" speed="13.89">
        <lane index="0" allow="pedestrian" width="3.00">
            <param key="origId" value="135777010"/>
        </lane>
        <lane index="1" disallow="pedestrian tram rail_urban rail rail_electric rail_fast ship">
            <param key="origId" value="135777010"/>
        </lane>
    </edge>
    <edge id="-135777010#5" from="311417477" to="1560225539" name="Hermann-Dorner-Allee" priority="6" type="highway.tertiary" numLanes="2" speed="13.89" shape="1022.73,1455.74 993.09,1428.88 984.48,1420.75 980.94,1417.21 940.34,1380.55 924.57,1366.80 913.95,1356.81 897.40,1341.59 888.91,1334.02 884.35,1329.98 832.08,1282.30">
        <lane index="0" allow="pedestrian" width="3.00">
            <param key="origId" value="135777010"/>
        </lane>
        <lane index="1" disallow="pedestrian tram rail_urban rail rail_electric rail_fast ship">
            <param key="origId" value="135777010"/>
        </lane>
    </edge>
    <edge id="-137482783#0" from="1295543696" to="cluster_1294964098_1295543743" priority="2" type="highway.service" numLanes="1" speed="5.56" shape="2187.02,293.84 2185.15,295.98 2172.93,310.01 2160.39,324.42 2152.26,333.74" allow="pedestrian bus delivery bicycle">
        <lane index="0">
            <param key="origId" value="137482783 137482782 114285336"/>
        </lane>
        <param key="origTo" value="1294964098"/>
    </edge>
    <edge id="-137482783#1" from="1294964106" to="1295543696" priority="2" type="highway.service" numLanes="1" speed="5.56" allow="pedestrian bus delivery bicycle">
        <lane index="0">
            <param key="origId" value="137482783"/>
        </lane>
    </edge>
    <edge id="-137483014" from="1560223464" to="cluster_1294964191_3621697960" name="Wilhelm-Ostwald-Straße" priority="4" type="highway.residential" numLanes="2" speed="13.89" shape="2037.93,234.66 2044.01,239.93 2111.64,298.54 2125.60,310.63">
        <lane index="0" allow="pedestrian" width="2.00">
            <param key="origId" value="137483014 137483015"/>
        </lane>
        <lane index="1" disallow="pedestrian tram rail_urban rail rail_electric rail_fast ship">
            <param key="origId" value="137483014 137483015"/>
        </lane>
        <param key="origTo" value="1294964191"/>
    </edge>
    <edge id="-137483015#0" from="cluster_1294964098_1295543743" to="1560223649" name="Wilhelm-Ostwald-Straße" priority="4" type="highway.residential" numLanes="2" speed="13.89" shape="2152.26,333.74 2155.10,336.19 2216.82,389.67 2223.75,395.68">
        <lane index="0" allow="pedestrian" width="2.00">
            <param key="origId" value="137483015 142575709"/>
        </lane>
        <lane index="1" disallow="pedestrian tram rail_urban rail rail_electric rail_fast ship">
            <param key="origId" value="137483015 142575709"/>
        </lane>
        <param key="origFrom" value="1294964098"/>
    </edge>
    <edge id="-137483015#2" from="1294963989" to="cluster_1294964098_1295543743" name="Wilhelm-Ostwald-Straße" priority="4" type="highway.residential" numLanes="2" speed="13.89" shape="2140.58,323.61 2148.72,330.67">
        <lane index="0" allow="pedestrian" width="2.00">
            <param key="origId" value="137483015"/>
        </lane>
        <lane index="1" disallow="pedestrian tram rail_urban rail rail_electric rail_fast ship">
            <param key="origId" value="137483015"/>
        </lane>
        <param key="origTo" value="1295543743"/>
    </edge>
    <edge id="-137483015#3" from="cluster_1294964191_3621697960" to="1294963989" name="Wilhelm-Ostwald-Straße" priority="4" type="highway.residential" numLanes="2" speed="13.89" shape="2127.63,312.39 2140.58,323.61">
        <lane index="0" allow="pedestrian" width="2.00">
            <param key="origId" value="137483015"/>
        </lane>
        <lane index="1" disallow="pedestrian tram rail_urban rail rail_electric rail_fast ship">
            <param key="origId" value="137483015"/>
        </lane>
        <param key="origFrom" value="3621697960"/>
    </edge>
    <edge id="-142575655#0" from="4566425157" to="1560225398" name="Abram-Joffe-Straße" priority="5" type="highway.unclassified" numLanes="2" speed="13.89" shape="1342.78,1111.04 1374.98,1140.61 1383.35,1148.19">
        <lane index="0" allow="pedestrian" width="2.00">
            <param key="origId" value="142575655"/>
        </lane>
        <lane index="1" disallow="pedestrian tram rail_urban rail rail_electric rail_fast ship">
            <param key="origId" value="142575655"/>
        </lane>
    </edge>
    <edge id="-142575655#1" from="cluster_2648427259_2648427260_3180391891_3180391894_38919786" to="4566425157" name="Abram-Joffe-Straße" priority="5" type="highway.unclassified" numLanes="2" speed="13.89" shape="1308.83,1079.85 1342.78,1111.04">
        <lane index="0" allow="pedestrian" width="2.00">
            <param key="origId" value="142575655"/>
        </lane>
        <lane index="1" disallow="pedestrian tram rail_urban rail rail_electric rail_fast ship">
            <param key="origId" value="142575655"/>
        </lane>
        <param key="origFrom" value="2648427260"/>
    </edge>
    <edge id="-142575655#10" from="cluster_1789928382_664166124_664166125_664166127" to="4004564033" name="Abram-Joffe-Straße" priority="5" type="highway.unclassified" numLanes="2" speed="13.89" shape="1079.64,873.34 1084.26,876.97 1120.18,908.61">
        <lane index="0" allow="pedestrian" width="2.00">
            <param key="origId" value="142575655"/>
        </lane>
        <lane index="1" disallow="pedestrian tram rail_urban rail rail_electric rail_fast ship">
            <param key="origId" value="142575655"/>
        </lane>
        <param key="origFrom" value="664166127"/>
    </edge>
    <edge id="-142575655#4" from="833046588" to="cluster_2648427259_2648427260_3180391891_3180391894_38919786" name="Abram-Joffe-Straße" priority="5" type="highway.unclassified" numLanes="2" speed="13.89" shape="1249.00,1024.90 1298.60,1070.45">
        <lane index="0" allow="pedestrian" width="2.00">
            <param key="origId" value="142575655"/>
        </lane>
        <lane index="1" disallow="pedestrian tram rail_urban rail rail_electric rail_fast ship">
            <param key="origId" value="142575655"/>
        </lane>
        <param key="origTo" value="2648427259"/>
    </edge>
    <edge id="-142575655#5" from="833045584" to="833046588" name="Abram-Joffe-Straße" priority="5" type="highway.unclassified" numLanes="2" speed="13.89">
        <lane index="0" allow="pedestrian" width="2.00">
            <param key="origId" value="142575655"/>
        </lane>
        <lane index="1" disallow="pedestrian tram rail_urban rail rail_electric rail_fast ship">
            <param key="origId" value="142575655"/>
        </lane>
    </edge>
    <edge id="-142575655#6" from="664166211" to="833045584" name="Abram-Joffe-Straße" priority="5" type="highway.unclassified" numLanes="2" speed="13.89" shape="1206.57,986.37 1211.07,990.42 1213.42,992.54 1229.78,1007.33">
        <lane index="0" allow="pedestrian" width="2.00">
            <param key="origId" value="142575655"/>
        </lane>
        <lane index="1" disallow="pedestrian tram rail_urban rail rail_electric rail_fast ship">
            <param key="origId" value="142575655"/>
        </lane>
    </edge>
    <edge id="-142575655#7" from="5950267527" to="664166211" name="Abram-Joffe-Straße" priority="5" type="highway.unclassified" numLanes="2" speed="13.89" shape="1144.83,930.38 1161.51,945.55 1199.75,980.31 1206.57,986.37">
        <lane index="0" allow="pedestrian" width="2.00">
            <param key="origId" value="142575655"/>
        </lane>
        <lane index="1" disallow="pedestrian tram rail_urban rail rail_electric rail_fast ship">
            <param key="origId" value="142575655"/>
        </lane>
    </edge>
    <edge id="-142575655#8" from="664166202" to="5950267527" name="Abram-Joffe-Straße" priority="5" type="highway.unclassified" numLanes="2" speed="13.89">
        <lane index="0" allow="pedestrian" width="2.00">
            <param key="origId" value="142575655"/>
        </lane>
        <lane index="1" disallow="pedestrian tram rail_urban rail rail_electric rail_fast ship">
            <param key="origId" value="142575655"/>
        </lane>
    </edge>
    <edge id="-142575655#9" from="4004564033" to="664166202" name="Abram-Joffe-Straße" priority="5" type="highway.unclassified" numLanes="2" speed="13.89">
        <lane index="0" allow="pedestrian" width="2.00">
            <param key="origId" value="142575655"/>
        </lane>
        <lane index="1" disallow="pedestrian tram rail_urban rail rail_electric rail_fast ship">
            <param key="origId" value="142575655"/>
        </lane>
    </edge>
    <edge id="-142575656#0" from="1451166834" to="1560224500" name="Albert-Einstein-Straße" priority="5" type="highway.unclassified" numLanes="2" speed="13.89">
        <lane index="0" allow="pedestrian" width="2.00">
            <param key="origId" value="142575656"/>
        </lane>
        <lane index="1" disallow="pedestrian tram rail_urban rail rail_electric rail_fast ship">
            <param key="origId" value="142575656"/>
        </lane>
    </edge>
    <edge id="-142575656#1" from="cluster_748473702_748473782" to="1451166834" name="Albert-Einstein-Straße" priority="5" type="highway.unclassified" numLanes="2" speed="13.89" shape="1764.14,788.06 1769.38,793.15">
        <lane index="0" allow="pedestrian" width="2.00">
            <param key="origId" value="142575656"/>
        </lane>
        <lane index="1" disallow="pedestrian tram rail_urban rail rail_electric rail_fast ship">
            <param key="origId" value="142575656"/>
        </lane>
        <param key="origFrom" value="748473702"/>
    </edge>
    <edge id="-142575656#10" from="1560224022" to="283720461" name="Albert-Einstein-Straße" priority="5" type="highway.unclassified" numLanes="2" speed="13.89">
        <lane index="0" allow="pedestrian" width="2.00">
            <param key="origId" value="142575656"/>
        </lane>
        <lane index="1" disallow="pedestrian tram rail_urban rail rail_electric rail_fast ship">
            <param key="origId" value="142575656"/>
        </lane>
    </edge>
    <edge id="-142575656#11" from="1568241535" to="1560224022" name="Albert-Einstein-Straße" priority="5" type="highway.unclassified" numLanes="2" speed="13.89">
        <lane index="0" allow="pedestrian" width="2.00">
            <param key="origId" value="142575656"/>
        </lane>
        <lane index="1" disallow="pedestrian tram rail_urban rail rail_electric rail_fast ship">
            <param key="origId" value="142575656"/>
        </lane>
    </edge>
    <edge id="-142575656#12" from="cluster_1560223947_2399724246" to="1568241535" name="Albert-Einstein-Straße" priority="5" type="highway.unclassified" numLanes="2" speed="13.89" shape="1512.26,561.28 1530.93,576.91">
        <lane index="0" allow="pedestrian" width="2.00">
            <param key="origId" value="142575656"/>
        </lane>
        <lane index="1" disallow="pedestrian tram rail_urban rail rail_electric rail_fast ship">
            <param key="origId" value="142575656"/>
        </lane>
        <param key="origFrom" value="1560223947"/>
    </edge>