<?xml version="1.0" encoding="UTF-8"?>

<!-- generated on 2024-06-12 15:13:33 by Eclipse SUMO netedit Version 1.19.0
<configuration xmlns:xsi="http://www.w3.org/2001/XMLSchema-instance" xsi:noNamespaceSchemaLocation="http://sumo.dlr.de/xsd/neteditConfiguration.xsd">

    <input>
        <sumo-net-file value="/Users/zoltanvarga/Documents/Milestone-One/Network_and_config/cologne/cologne.net.xml"/>
    </input>

    <processing>
        <geometry.min-radius.fix.railways value="false"/>
        <geometry.max-grade.fix value="false"/>
        <offset.disable-normalization value="true"/>
        <lefthand value="0"/>
    </processing>

    <junctions>
        <no-turnarounds value="true"/>
        <junctions.corner-detail value="0"/>
        <junctions.limit-turn-speed value="-1.00"/>
        <rectangular-lane-cut value="0"/>
    </junctions>

    <pedestrian>
        <walkingareas value="0"/>
    </pedestrian>

</configuration>
-->

<edges version="1.16" xmlns:xsi="http://www.w3.org/2001/XMLSchema-instance" xsi:noNamespaceSchemaLocation="http://sumo.dlr.de/xsd/edges_file.xsd">
    <location netOffset="-342498.65,-5630866.92" convBoundary="13565.01,16795.57,14657.34,18337.23" origBoundary="6.166558,50.735925,7.295276,51.840721" projParameter="+proj=utm +zone=32 +ellps=WGS84 +datum=WGS84 +units=m +no_defs"/>

    <edge id="-132042183" from="252016278" to="247380550" priority="4" type="highway.residential" numLanes="1" speed="8.33" disallow="tram rail_urban rail rail_electric rail_fast ship"/>
    <edge id="-133081985#0" from="252016271" to="cluster_26718385_738066527_738066531_738066575" priority="9" type="highway.primary" numLanes="1" speed="13.89" shape="13798.52,17146.27 13802.10,17104.35" disallow="tram rail_urban rail rail_electric rail_fast ship"/>
    <edge id="-133081985#1" from="252017285" to="252016271" priority="9" type="highway.primary" numLanes="1" speed="13.89" disallow="tram rail_urban rail rail_electric rail_fast ship"/>
    <edge id="-133081987#2" from="476189" to="26716586" priority="9" type="highway.primary" numLanes="1" speed="13.89" shape="13810.68,16999.70 13812.51,16985.21 13817.80,16943.31 13819.37,16928.85 13821.79,16906.36" disallow="tram rail_urban rail rail_electric rail_fast ship"/>
    <edge id="-186623965#14" from="26110729" to="258585973" priority="7" type="highway.secondary" numLanes="2" speed="13.89" shape="14266.03,18073.90 14276.99,18073.46 14307.66,18072.86 14347.08,18072.05 14358.38,18071.69 14418.70,18069.97 14433.20,18069.42" disallow="tram rail_urban rail rail_electric rail_fast ship"/>
    <edge id="-186623965#16" from="247379907" to="26110729" priority="7" type="highway.secondary" numLanes="2" speed="13.89" shape="14057.43,18072.20 14091.30,18071.76 14266.03,18073.90" disallow="tram rail_urban rail rail_electric rail_fast ship"/>
    <edge id="-186623965#18" from="266570009" to="247379907" priority="7" type="highway.secondary" numLanes="2" speed="13.89" shape="13901.87,18087.55 13942.55,18079.30 13991.89,18073.97 14057.43,18072.20" disallow="tram rail_urban rail rail_electric rail_fast ship"/>
    <edge id="-194017408#1" from="2340562483" to="1679948677" priority="6" type="highway.tertiary" numLanes="1" speed="8.33" shape="14649.33,17221.64 14615.59,17233.57 14594.60,17239.41" disallow="tram rail_urban rail rail_electric rail_fast ship"/>
    <edge id="-225249129#0" from="3588475451" to="256201389" priority="6" type="highway.tertiary" numLanes="1" speed="8.33" disallow="tram rail_urban rail rail_electric rail_fast ship"/>
    <edge id="-225249129#1" from="652791048" to="3588475451" priority="6" type="highway.tertiary" numLanes="1" speed="8.33" disallow="tram rail_urban rail rail_electric rail_fast ship"/>
    <edge id="-22917421#14" from="cluster_1098574052_1098574061_247379905" to="247379907" priority="5" type="highway.unclassified" numLanes="1" speed="8.33" shape="13755.91,17615.26 13765.26,17626.69 13794.97,17674.38 13831.78,17733.45 13892.33,17823.21 13909.00,17848.91 13917.00,17862.86 13950.38,17909.99 14000.59,17984.32 14012.42,18002.83 14040.75,18047.48 14051.33,18064.14 14057.43,18072.20" disallow="tram rail_urban rail rail_electric rail_fast ship"/>
    <edge id="-22917421#4" from="247379907" to="268061678" priority="5" type="highway.unclassified" numLanes="1" speed="8.33" shape="14057.43,18072.20 14063.55,18080.17 14124.74,18160.01" disallow="tram rail_urban rail rail_electric rail_fast ship"/>
    <edge id="-22959475#4" from="3329935579" to="cluster_1098574052_1098574061_247379905" priority="4" type="highway.residential" numLanes="1" speed="8.33" shape="13565.01,17528.89 13601.59,17524.18 13614.26,17523.12 13638.06,17526.15 13649.52,17530.32 13660.06,17538.14 13708.33,17573.92 13736.43,17594.76 13739.86,17597.12" disallow="tram rail_urban rail rail_electric rail_fast ship"/>
    <edge id="-23283472#2" from="252016278" to="252016282" priority="4" type="highway.residential" numLanes="1" speed="8.33" shape="13936.92,16980.58 13931.25,16970.04 13926.39,16958.17 13925.01,16951.78 13925.08,16945.00 13925.77,16941.75 13926.67,16938.08 13935.05,16901.31" disallow="tram rail_urban rail rail_electric rail_fast ship"/>
    <edge id="-23283579#0" from="252046468" to="252017285" priority="4" type="highway.residential" numLanes="1" speed="13.89" disallow="tram rail_urban rail rail_electric rail_fast ship"/>
    <edge id="-23283579#1" from="cluster_252046467_252046470" to="252046468" priority="4" type="highway.residential" numLanes="1" speed="13.89" shape="13684.14,17229.92 13717.25,17233.68" disallow="tram rail_urban rail rail_electric rail_fast ship"/>
    <edge id="-23283580#1" from="252015689" to="252017289" priority="3" type="highway.living_street" numLanes="1" speed="2.78" shape="13684.35,17442.41 13690.88,17412.24 13689.69,17406.16 13695.01,17368.30 13699.73,17363.99 13700.25,17352.03" disallow="tram rail_urban rail rail_electric rail_fast ship"/>
    <edge id="-23648008#0" from="274333875" to="280120513" priority="6" type="highway.tertiary" numLanes="1" speed="13.89" disallow="tram rail_urban rail rail_electric rail_fast ship"/>
    <edge id="-23648008#1" from="3302422976" to="274333875" priority="6" type="highway.tertiary" numLanes="1" speed="13.89" disallow="tram rail_urban rail rail_electric rail_fast ship"/>
    <edge id="-23648008#3" from="256201389" to="3302422976" priority="6" type="highway.tertiary" numLanes="1" speed="13.89" shape="14498.06,17266.64 14432.02,17281.72 14312.27,17309.06" disallow="tram rail_urban rail rail_electric rail_fast ship"/>
    <edge id="-23686088#0" from="252016281" to="32319828" priority="9" type="highway.primary" numLanes="1" speed="13.89" disallow="tram rail_urban rail rail_electric rail_fast ship"/>
    <edge id="-23686088#1" from="26716586" to="252016281" priority="9" type="highway.primary" numLanes="1" speed="13.89" disallow="tram rail_urban rail rail_electric rail_fast ship"/>
    <edge id="-23840712#0" from="258346773" to="258346772" priority="4" type="highway.residential" numLanes="1" speed="8.33" shape="13912.40,17493.27 13913.07,17537.81 13919.14,17587.35" disallow="tram rail_urban rail rail_electric rail_fast ship"/>
    <edge id="-23840712#3" from="258347997" to="258346773" priority="4" type="highway.residential" numLanes="1" speed="8.33" shape="13912.69,17464.27 13912.59,17471.69 13912.46,17486.40 13912.40,17493.27" disallow="tram rail_urban rail rail_electric rail_fast ship"/>
    <edge id="-23840712#4" from="252016273" to="258347997" priority="4" type="highway.residential" numLanes="1" speed="8.33" shape="13915.61,17389.67 13915.43,17396.34 13912.69,17464.27" disallow="tram rail_urban rail rail_electric rail_fast ship"/>
    <edge id="-23840888#0" from="258346776" to="258347999" priority="4" type="highway.residential" numLanes="1" speed="8.33" disallow="tram rail_urban rail rail_electric rail_fast ship"/>
    <edge id="-23840888#1" from="258348002" to="258346776" priority="4" type="highway.residential" numLanes="1" speed="8.33" disallow="tram rail_urban rail rail_electric rail_fast ship"/>
    <edge id="-23840935" from="258348233" to="258348232" priority="4" type="highway.residential" numLanes="1" speed="8.33" disallow="tram rail_urban rail rail_electric rail_fast ship"/>
    <edge id="-23840971" from="258348535" to="cluster_258346775_2665408833" priority="4" type="highway.residential" numLanes="1" speed="8.33" shape="13840.67,17429.30 13837.94,17496.19" disallow="tram rail_urban rail rail_electric rail_fast ship"/>
    <edge id="-23840972" from="258348534" to="cluster_258346775_2665408833" priority="4" type="highway.residential" numLanes="1" speed="8.33" shape="13829.45,17599.66 13830.71,17572.91 13834.34,17496.33" disallow="tram rail_urban rail rail_electric rail_fast ship"/>
    <edge id="-24487264" from="266574870" to="256201389" priority="4" type="highway.residential" numLanes="1" speed="13.89" disallow="tram rail_urban rail rail_electric rail_fast ship"/>
    <edge id="-24610382" from="252016275" to="252016277" priority="4" type="highway.residential" numLanes="1" speed="8.33" disallow="tram rail_urban rail rail_electric rail_fast ship"/>
    <edge id="-25166682#0" from="274331914" to="274333875" priority="4" type="highway.residential" numLanes="1" speed="13.89" disallow="tram rail_urban rail rail_electric rail_fast ship"/>
    <edge id="-25168493" from="2340562483" to="274353299" priority="4" type="highway.residential" numLanes="1" speed="13.89" disallow="tram rail_urban rail rail_electric rail_fast ship"/>
    <edge id="-28675493" from="1679948681" to="280120513" priority="6" type="highway.tertiary" numLanes="2" speed="13.89" disallow="tram rail_urban rail rail_electric rail_fast ship"/>
    <edge id="-28675494#1" from="3008854750" to="62426694" priority="6" type="highway.tertiary" numLanes="2" speed="13.89" shape="14164.80,17109.23 14171.44,17182.60 14172.42,17193.44" disallow="tram rail_urban rail rail_electric rail_fast ship"/>
    <edge id="-28675510#0" from="796761043" to="252017285" priority="9" type="highway.primary" numLanes="1" speed="13.89" disallow="tram rail_urban rail rail_electric rail_fast ship"/>
    <edge id="-28675510#11" from="294223020" to="cluster_1098574052_1098574061_247379905" priority="9" type="highway.primary" numLanes="1" speed="13.89" shape="13673.67,17866.30 13681.04,17838.14 13683.63,17827.56 13729.06,17641.35 13733.97,17621.99 13734.79,17618.65 13735.48,17615.90" disallow="tram rail_urban rail rail_electric rail_fast ship"/>
    <edge id="-28675510#3" from="258346770" to="796761043" priority="9" type="highway.primary" numLanes="1" speed="13.89" shape="13761.00,17496.85 13762.47,17486.81 13769.45,17430.97 13775.80,17376.72" disallow="tram rail_urban rail rail_electric rail_fast ship"/>
    <edge id="-28675510#5" from="cluster_1098574052_1098574061_247379905" to="258346770" priority="9" type="highway.primary" numLanes="1" speed="13.89" shape="13739.86,17597.12 13742.49,17585.55 13761.00,17496.85" disallow="tram rail_urban rail rail_electric rail_fast ship"/>
    <edge id="-28691861" from="315373118" to="315372838" priority="4" type="highway.residential" numLanes="1" speed="8.33" disallow="tram rail_urban rail rail_electric rail_fast ship"/>
    <edge id="-290365598#1" from="258346776" to="258346773" priority="4" type="highway.residential" numLanes="1" speed="8.33" shape="13982.09,17491.99 13952.85,17492.53 13912.40,17493.27" disallow="tram rail_urban rail rail_electric rail_fast ship"/>
    <edge id="-297047307" from="280120513" to="256190139" priority="6" type="highway.tertiary" numLanes="1" speed="13.89" shape="14184.47,17335.59 14188.94,17376.46 14191.82,17402.74" disallow="tram rail_urban rail rail_electric rail_fast ship"/>
    <edge id="-297047308" from="62426694" to="1679948681" priority="6" type="highway.tertiary" numLanes="1" speed="13.89" disallow="tram rail_urban rail rail_electric rail_fast ship"/>
    <edge id="-297047309#0" from="256189978" to="3008854750" priority="6" type="highway.tertiary" numLanes="1" speed="13.89" disallow="tram rail_urban rail rail_electric rail_fast ship"/>
    <edge id="-297047310#2" from="258347996" to="26110729" priority="6" type="highway.tertiary" numLanes="1" speed="13.89" shape="14199.10,17460.28 14206.17,17517.16 14210.41,17548.86 14211.68,17558.34 14212.86,17565.78 14215.66,17587.81 14217.69,17607.85 14222.01,17650.54 14224.20,17669.62 14225.18,17678.14 14227.02,17692.37 14232.59,17735.37 14235.65,17756.43 14239.79,17796.17 14240.46,17801.87 14240.83,17805.06 14254.78,17942.87 14255.47,17949.78 14264.15,18043.78 14265.35,18065.39 14266.03,18073.90" disallow="tram rail_urban rail rail_electric rail_fast ship"/>
    <edge id="-297047310#3" from="256190139" to="258347996" priority="6" type="highway.tertiary" numLanes="1" speed="13.89" disallow="tram rail_urban rail rail_electric rail_fast ship"/>
    <edge id="-309744810#1" from="cluster_26718385_738066527_738066531_738066575" to="476189" priority="9" type="highway.primary" numLanes="1" speed="13.89" shape="13802.10,17104.35 13804.49,17078.10 13805.05,17071.83 13806.28,17057.89 13809.80,17011.42 13810.68,16999.70" disallow="tram rail_urban rail rail_electric rail_fast ship"/>
    <edge id="-323450710#0" from="3302422984" to="3302422976" priority="4" type="highway.residential" numLanes="1" speed="13.89" shape="14296.05,17207.33 14310.47,17297.73 14312.27,17309.06" disallow="tram rail_urban rail rail_electric rail_fast ship"/>
    <edge id="-353069169#0" from="3302156369" to="3588475451" priority="4" type="highway.residential" numLanes="1" speed="13.89" shape="14506.15,17166.00 14519.07,17236.13 14520.10,17241.74 14521.65,17250.16 14523.37,17259.48" disallow="tram rail_urban rail rail_electric rail_fast ship"/>
    <edge id="-42925825#2" from="247379910" to="26110729" priority="6" type="highway.tertiary" numLanes="1" speed="13.89" shape="14293.53,18337.23 14287.34,18275.83 14266.71,18081.13 14266.03,18073.90" disallow="tram rail_urban rail rail_electric rail_fast ship"/>
    <edge id="-4936412" from="256490868" to="32319828" priority="9" type="highway.primary" numLanes="1" speed="13.89" disallow="tram rail_urban rail rail_electric rail_fast ship"/>
    <edge id="-8716807#0" from="252016274" to="252017285" priority="5" type="highway.unclassified" numLanes="1" speed="8.33" shape="13903.95,17224.77 13796.66,17241.26 13791.17,17242.08" disallow="tram rail_urban rail rail_electric rail_fast ship"/>
    <edge id="-8716807#4" from="247380551" to="252016274" priority="5" type="highway.unclassified" numLanes="1" speed="8.33" shape="14025.02,17209.85 14018.17,17210.70 13997.90,17213.20 13961.79,17217.84 13923.92,17222.38 13903.95,17224.77" disallow="tram rail_urban rail rail_electric rail_fast ship"/>
    <edge id="-8716807#5" from="256190118" to="247380551" priority="5" type="highway.unclassified" numLanes="1" speed="8.33" disallow="tram rail_urban rail rail_electric rail_fast ship"/>
    <edge id="-8716807#6" from="62426694" to="256190118" priority="5" type="highway.unclassified" numLanes="1" speed="8.33" disallow="tram rail_urban rail rail_electric rail_fast ship"/>
    <edge id="132042183" from="247380550" to="252016278" priority="4" type="highway.residential" numLanes="1" speed="8.33" disallow="tram rail_urban rail rail_electric rail_fast ship"/>
    <edge id="133081985#0" from="cluster_26718385_738066527_738066531_738066575" to="252016271" priority="9" type="highway.primary" numLanes="1" speed="13.89" shape="13802.10,17104.35 13798.52,17146.27" disallow="tram rail_urban rail rail_electric rail_fast ship"/>
    <edge id="133081985#1" from="252016271" to="252017285" priority="9" type="highway.primary" numLanes="1" speed="13.89" disallow="tram rail_urban rail rail_electric rail_fast ship"/>
    <edge id="133081987#0" from="26716586" to="476189" priority="9" type="highway.primary" numLanes="1" speed="13.89" shape="13821.79,16906.36 13819.37,16928.85 13817.80,16943.31 13812.51,16985.21 13810.68,16999.70" disallow="tram rail_urban rail rail_electric rail_fast ship"/>
    <edge id="133081987#3" from="476189" to="cluster_26718385_738066527_738066531_738066575" priority="9" type="highway.primary" numLanes="1" speed="13.89" shape="13810.68,16999.70 13809.80,17011.42 13806.28,17057.89 13805.05,17071.83 13804.49,17078.10 13802.10,17104.35" disallow="tram rail_urban rail rail_electric rail_fast ship"/>
    <edge id="155600123#0" from="26110729" to="258347996" priority="6" type="highway.tertiary" numLanes="1" speed="13.89" shape="14266.03,18073.90 14265.35,18065.39 14264.15,18043.78 14255.47,17949.78 14254.78,17942.87 14240.83,17805.06 14240.46,17801.87 14239.79,17796.17 14235.65,17756.43 14232.59,17735.37 14227.02,17692.37 14225.18,17678.14 14224.20,17669.62 14222.01,17650.54 14217.69,17607.85 14215.66,17587.81 14212.86,17565.78 14211.68,17558.34 14210.41,17548.86 14206.17,17517.16 14199.10,17460.28" disallow="tram rail_urban rail rail_electric rail_fast ship"/>
    <edge id="155723703#0" from="32319828" to="32319829" priority="4" type="highway.residential" numLanes="1" speed="13.89" shape="13831.28,16834.98 13827.34,16833.34 13734.18,16813.85" spreadType="center" disallow="tram rail_urban rail rail_electric rail_fast ship"/>
    <edge id="160807420" from="26715772" to="26716586" priority="4" type="highway.residential" numLanes="1" speed="13.89" shape="13733.34,16897.00 13806.10,16910.90 13814.92,16910.45 13817.89,16908.69 13821.79,16906.36" spreadType="center" disallow="tram rail_urban rail rail_electric rail_fast ship"/>
    <edge id="186623965#15" from="26110729" to="247379907" priority="7" type="highway.secondary" numLanes="2" speed="13.89" shape="14266.03,18073.90 14091.30,18071.76 14057.43,18072.20" disallow="tram rail_urban rail rail_electric rail_fast ship"/>
    <edge id="186623965#17" from="247379907" to="266570009" priority="7" type="highway.secondary" numLanes="2" speed="13.89" shape="14057.43,18072.20 13991.89,18073.97 13942.55,18079.30 13901.87,18087.55" disallow="tram rail_urban rail rail_electric rail_fast ship"/>
    <edge id="186623965#9" from="258585973" to="26110729" priority="7" type="highway.secondary" numLanes="2" speed="13.89" shape="14433.20,18069.42 14418.70,18069.97 14358.38,18071.69 14347.08,18072.05 14307.66,18072.86 14276.99,18073.46 14266.03,18073.90" disallow="tram rail_urban rail rail_electric rail_fast ship"/>
    <edge id="194017408#0" from="1679948677" to="2340562483" priority="6" type="highway.tertiary" numLanes="1" speed="8.33" shape="14594.60,17239.41 14615.59,17233.57 14649.33,17221.64" disallow="tram rail_urban rail rail_electric rail_fast ship"/>
    <edge id="225249129#0" from="256201389" to="3588475451" priority="6" type="highway.tertiary" numLanes="1" speed="8.33" disallow="tram rail_urban rail rail_electric rail_fast ship"/>
    <edge id="225249129#1" from="3588475451" to="652791048" priority="6" type="highway.tertiary" numLanes="1" speed="8.33" disallow="tram rail_urban rail rail_electric rail_fast ship"/>
    <edge id="22917421#3" from="268061678" to="247379907" priority="5" type="highway.unclassified" numLanes="1" speed="8.33" shape="14124.74,18160.01 14063.55,18080.17 14057.43,18072.20" disallow="tram rail_urban rail rail_electric rail_fast ship"/>
    <edge id="22917421#5" from="247379907" to="cluster_1098574052_1098574061_247379905" priority="5" type="highway.unclassified" numLanes="1" speed="8.33" shape="14057.43,18072.20 14051.33,18064.14 14040.75,18047.48 14012.42,18002.83 14000.59,17984.32 13950.38,17909.99 13917.00,17862.86 13909.00,17848.91 13892.33,17823.21 13831.78,17733.45 13794.97,17674.38 13765.26,17626.69 13755.91,17615.26" disallow="tram rail_urban rail rail_electric rail_fast ship"/>
    <edge id="22959475#0" from="cluster_1098574052_1098574061_247379905" to="3329935579" priority="4" type="highway.residential" numLanes="1" speed="8.33" shape="13739.86,17597.12 13736.43,17594.76 13708.33,17573.92 13660.06,17538.14 13649.52,17530.32 13638.06,17526.15 13614.26,17523.12 13601.59,17524.18 13565.01,17528.89" disallow="tram rail_urban rail rail_electric rail_fast ship"/>
    <edge id="22959550#0" from="256190139" to="256190156" priority="4" type="highway.residential" numLanes="1" speed="8.33" spreadType="center" disallow="tram rail_urban rail rail_electric rail_fast ship"/>
    <edge id="22959550#1" from="256190156" to="247380547" priority="4" type="highway.residential" numLanes="1" speed="8.33" shape="14118.44,17402.56 14052.75,17402.06 14044.81,17402.32" spreadType="center" disallow="tram rail_urban rail rail_electric rail_fast ship"/>
    <edge id="22959550#3" from="247380547" to="252016273" priority="4" type="highway.residential" numLanes="1" speed="8.33" shape="14044.81,17402.32 14020.48,17402.30 13915.61,17389.67" spreadType="center" disallow="tram rail_urban rail rail_electric rail_fast ship"/>
    <edge id="22959550#4" from="252016273" to="796761043" priority="4" type="highway.residential" numLanes="1" speed="8.33" shape="13915.61,17389.67 13780.75,17377.23 13775.80,17376.72" spreadType="center" disallow="tram rail_urban rail rail_electric rail_fast ship"/>
    <edge id="22959552#0" from="247380550" to="256189976" priority="4" type="highway.residential" numLanes="1" speed="8.33" shape="13965.41,16962.63 13980.78,17007.08 13995.09,17054.48" spreadType="center" disallow="tram rail_urban rail rail_electric rail_fast ship"/>
    <edge id="22959552#1" from="256189976" to="252041405" priority="4" type="highway.residential" numLanes="1" speed="8.33" shape="13995.09,17054.48 14004.07,17089.99 14010.68,17120.11" spreadType="center" disallow="tram rail_urban rail rail_electric rail_fast ship"/>
    <edge id="22959552#2" from="252041405" to="247380551" priority="4" type="highway.residential" numLanes="1" speed="8.33" shape="14010.68,17120.11 14017.86,17165.05 14021.80,17189.70 14025.02,17209.85" spreadType="center" disallow="tram rail_urban rail rail_electric rail_fast ship"/>
    <edge id="22959552#4" from="247380551" to="315373118" priority="4" type="highway.residential" numLanes="1" speed="8.33" spreadType="center" disallow="tram rail_urban rail rail_electric rail_fast ship"/>
    <edge id="22959552#5" from="315373118" to="247380547" priority="4" type="highway.residential" numLanes="1" speed="8.33" shape="14035.86,17310.22 14040.98,17360.81 14044.81,17402.32" spreadType="center" disallow="tram rail_urban rail rail_electric rail_fast ship"/>
    <edge id="23283435#1" from="cluster_26718385_738066527_738066531_738066575" to="cluster_252046467_252046470" priority="3" type="highway.living_street" numLanes="1" speed="2.78" shape="13788.45,17103.20 13773.67,17113.18 13751.97,17128.94 13686.74,17179.89 13682.55,17182.91 13679.13,17186.95 13674.26,17227.42" spreadType="center" disallow="tram rail_urban rail rail_electric rail_fast ship"/>
    <edge id="23283436" from="476189" to="252016108" priority="4" type="highway.residential" numLanes="1" speed="13.89" spreadType="center" disallow="tram rail_urban rail rail_electric rail_fast ship"/>
    <edge id="23283469" from="252016270" to="252016271" priority="4" type="highway.residential" numLanes="1" speed="8.33" shape="13890.89,17135.31 13805.04,17145.92 13798.52,17146.27" spreadType="center" disallow="tram rail_urban rail rail_electric rail_fast ship"/>
    <edge id="23283470#0" from="252016273" to="315372838" priority="4" type="highway.residential" numLanes="1" speed="8.33" shape="13915.61,17389.67 13913.19,17340.99 13911.88,17314.48" spreadType="center" disallow="tram rail_urban rail rail_electric rail_fast ship"/>
    <edge id="23283470#2" from="315372838" to="252016274" priority="4" type="highway.residential" numLanes="1" speed="8.33" spreadType="center" disallow="tram rail_urban rail rail_electric rail_fast ship"/>
    <edge id="23283470#3" from="252016274" to="252016270" priority="4" type="highway.residential" numLanes="1" speed="8.33" shape="13903.95,17224.77 13901.17,17205.68 13897.71,17182.04 13890.89,17135.31" spreadType="center" disallow="tram rail_urban rail rail_electric rail_fast ship"/>
    <edge id="23283470#5" from="252016270" to="252016277" priority="4" type="highway.residential" numLanes="1" speed="8.33" spreadType="center" disallow="tram rail_urban rail rail_electric rail_fast ship"/>
    <edge id="23283472#0" from="252016282" to="252016278" priority="4" type="highway.residential" numLanes="1" speed="8.33" shape="13935.05,16901.31 13926.67,16938.08 13925.77,16941.75 13925.08,16945.00 13925.01,16951.78 13926.39,16958.17 13931.25,16970.04 13936.92,16980.58" disallow="tram rail_urban rail rail_electric rail_fast ship"/>
    <edge id="23283473" from="252016282" to="252016281" priority="4" type="highway.residential" numLanes="1" speed="8.33" shape="13935.05,16901.31 13829.59,16883.16 13825.06,16882.40" spreadType="center" disallow="tram rail_urban rail rail_electric rail_fast ship"/>
    <edge id="23283474" from="252016280" to="252016282" priority="4" type="highway.residential" numLanes="1" speed="8.33" spreadType="center" disallow="tram rail_urban rail rail_electric rail_fast ship"/>
    <edge id="23283579#0" from="252017285" to="252046468" priority="4" type="highway.residential" numLanes="1" speed="13.89" disallow="tram rail_urban rail rail_electric rail_fast ship"/>
    <edge id="23283579#1" from="252046468" to="cluster_252046467_252046470" priority="4" type="highway.residential" numLanes="1" speed="13.89" shape="13717.25,17233.68 13684.14,17229.92" disallow="tram rail_urban rail rail_electric rail_fast ship"/>
    <edge id="23283580#0" from="252017289" to="252015689" priority="3" type="highway.living_street" numLanes="1" speed="2.78" shape="13700.25,17352.03 13699.73,17363.99 13695.01,17368.30 13689.69,17406.16 13690.88,17412.24 13684.35,17442.41" disallow="tram rail_urban rail rail_electric rail_fast ship"/>
    <edge id="23285888#0" from="252016270" to="252041405" priority="4" type="highway.residential" numLanes="1" speed="8.33" shape="13890.89,17135.31 13914.02,17132.38 13990.68,17122.64 14010.68,17120.11" spreadType="center" disallow="tram rail_urban rail rail_electric rail_fast ship"/>
    <edge id="23286179#0" from="252046468" to="252017289" priority="4" type="highway.residential" numLanes="1" speed="13.89" spreadType="center" disallow="tram rail_urban rail rail_electric rail_fast ship"/>
    <edge id="23286179#1" from="252017289" to="252046469" priority="4" type="highway.residential" numLanes="1" speed="13.89" spreadType="center" disallow="tram rail_urban rail rail_electric rail_fast ship"/>
    <edge id="23286179#2" from="252046469" to="cluster_252046467_252046470" priority="4" type="highway.residential" numLanes="1" speed="13.89" shape="13667.70,17348.43 13684.14,17229.92" spreadType="center" disallow="tram rail_urban rail rail_electric rail_fast ship"/>
    <edge id="23286180" from="252046469" to="762399659" priority="3" type="highway.living_street" numLanes="1" speed="2.78" shape="13667.70,17348.43 13615.69,17363.84 13614.97,17373.38 13612.57,17398.43" disallow="tram rail_urban rail rail_electric rail_fast ship"/>
    <edge id="23647118" from="256189977" to="256190118" priority="4" type="highway.residential" numLanes="1" speed="8.33" spreadType="center" disallow="tram rail_urban rail rail_electric rail_fast ship"/>
    <edge id="23647126" from="256190156" to="256190118" priority="4" type="highway.residential" numLanes="1" speed="8.33" spreadType="center" disallow="tram rail_urban rail rail_electric rail_fast ship"/>
    <edge id="23648008#0" from="280120513" to="274333875" priority="6" type="highway.tertiary" numLanes="1" speed="13.89" disallow="tram rail_urban rail rail_electric rail_fast ship"/>
    <edge id="23648008#1" from="274333875" to="3302422976" priority="6" type="highway.tertiary" numLanes="1" speed="13.89" disallow="tram rail_urban rail rail_electric rail_fast ship"/>
    <edge id="23648008#2" from="3302422976" to="256201389" priority="6" type="highway.tertiary" numLanes="1" speed="13.89" shape="14312.27,17309.06 14432.02,17281.72 14498.06,17266.64" disallow="tram rail_urban rail rail_electric rail_fast ship"/>
    <edge id="23656410#0" from="26718384" to="cluster_26718385_738066527_738066531_738066575" priority="3" type="highway.living_street" numLanes="1" speed="2.78" shape="13775.78,17075.35 13786.06,17086.91 13789.58,17100.40" spreadType="center" disallow="tram rail_urban rail rail_electric rail_fast ship"/>
    <edge id="23686088#0" from="32319828" to="252016281" priority="9" type="highway.primary" numLanes="1" speed="13.89" disallow="tram rail_urban rail rail_electric rail_fast ship"/>
    <edge id="23686088#1" from="252016281" to="26716586" priority="9" type="highway.primary" numLanes="1" speed="13.89" disallow="tram rail_urban rail rail_electric rail_fast ship"/>
    <edge id="23840712#0" from="258346772" to="258346773" priority="4" type="highway.residential" numLanes="1" speed="8.33" shape="13919.14,17587.35 13913.07,17537.81 13912.40,17493.27" disallow="tram rail_urban rail rail_electric rail_fast ship"/>
    <edge id="23840712#1" from="258346773" to="258347997" priority="4" type="highway.residential" numLanes="1" speed="8.33" shape="13912.40,17493.27 13912.46,17486.40 13912.59,17471.69 13912.69,17464.27" disallow="tram rail_urban rail rail_electric rail_fast ship"/>
    <edge id="23840712#4" from="258347997" to="252016273" priority="4" type="highway.residential" numLanes="1" speed="8.33" shape="13912.69,17464.27 13915.43,17396.34 13915.61,17389.67" disallow="tram rail_urban rail rail_electric rail_fast ship"/>
    <edge id="23840713#0" from="258346770" to="cluster_258346775_2665408833" priority="4" type="highway.residential" numLanes="1" speed="8.33" shape="13761.00,17496.85 13766.16,17496.92 13834.34,17496.33" spreadType="center" disallow="tram rail_urban rail rail_electric rail_fast ship"/>
    <edge id="23840713#2" from="cluster_258346775_2665408833" to="258346773" priority="4" type="highway.residential" numLanes="1" speed="8.33" shape="13837.94,17496.19 13912.40,17493.27" spreadType="center" disallow="tram rail_urban rail rail_electric rail_fast ship"/>