<?xml version="1.0" encoding="UTF-8"?>

<!-- generated on 2023-12-13 09:40:13 by Eclipse SUMO netedit Version 1.19.0
<configuration xmlns:xsi="http://www.w3.org/2001/XMLSchema-instance" xsi:noNamespaceSchemaLocation="http://sumo.dlr.de/xsd/neteditConfiguration.xsd">

    <input>
        <sumo-net-file value="/Users/zoltanvarga/Desktop/SUMO/Sumo_simulation_code/csomor1.net.xml"/>
    </input>

    <processing>
        <geometry.min-radius.fix.railways value="false"/>
        <geometry.max-grade.fix value="false"/>
        <offset.disable-normalization value="true"/>
        <lefthand value="0"/>
    </processing>

    <junctions>
        <no-turnarounds value="true"/>
        <junctions.corner-detail value="5"/>
        <junctions.limit-turn-speed value="5.50"/>
        <rectangular-lane-cut value="0"/>
    </junctions>

    <pedestrian>
        <walkingareas value="0"/>
    </pedestrian>

</configuration>
-->

<edges version="1.16" xmlns:xsi="http://www.w3.org/2001/XMLSchema-instance" xsi:noNamespaceSchemaLocation="http://sumo.dlr.de/xsd/edges_file.xsd">
    <location netOffset="-361515.59,-5265586.24" convBoundary="0.00,0.00,6818.69,5614.35" origBoundary="19.160019,47.530013,19.249993,47.579571" projParameter="+proj=utm +zone=34 +ellps=WGS84 +datum=WGS84 +units=m +no_defs"/>

    <edge id="-1003002050" from="1693854592" to="9073882204" priority="3" type="highway.residential" numLanes="1" speed="13.89" shape="4669.52,3667.59 4671.06,3661.75 4696.30,3571.72 4696.86,3569.73 4701.78,3552.14 4703.47,3546.09 4707.40,3535.85 4709.05,3531.67 4709.40,3530.81 4709.82,3529.73" disallow="tram rail_urban rail rail_electric rail_fast ship"/>
    <edge id="-1004156944" from="9265179894" to="1246121983" priority="3" type="highway.residential" numLanes="1" speed="13.89" shape="2088.26,1358.30 2105.45,1372.39 2117.46,1391.44" disallow="tram rail_urban rail rail_electric rail_fast ship"/>
    <edge id="-1004940216" from="9937919524" to="1670836950" priority="3" type="highway.residential" numLanes="1" speed="8.33" shape="4943.90,2064.54 4747.36,2153.10 4745.59,2153.90" disallow="tram rail_urban rail rail_electric rail_fast ship"/>
    <edge id="-1004940217#0" from="1670836954" to="1691229486" priority="3" type="highway.residential" numLanes="1" speed="8.33" shape="4837.78,2338.37 4832.20,2331.81 4825.72,2321.49" disallow="tram rail_urban rail rail_electric rail_fast ship"/>
    <edge id="-1004940217#1" from="1670836960" to="1670836954" priority="3" type="highway.residential" numLanes="1" speed="8.33" shape="4900.17,2385.11 4890.56,2376.00 4869.15,2363.18 4837.78,2338.37" disallow="tram rail_urban rail rail_electric rail_fast ship"/>
    <edge id="-1004940218" from="1670836972" to="1670813959" priority="3" type="highway.residential" numLanes="1" speed="8.33" shape="4963.24,2426.36 4958.77,2429.33 4797.16,2536.63 4788.95,2541.62" disallow="tram rail_urban rail rail_electric rail_fast ship"/>
    <edge id="-1004940219" from="1286736676" to="9981777716" priority="3" type="highway.residential" numLanes="1" speed="8.33" shape="3819.29,3425.82 3834.57,3420.18 3837.22,3418.90 3901.97,3383.90 3930.50,3364.73 3955.51,3350.87 3976.25,3339.32 4000.70,3327.59 4022.13,3315.53 4024.32,3314.23 4049.20,3299.57 4061.93,3290.66 4070.28,3285.13 4101.75,3266.79 4107.40,3263.85" disallow="tram rail_urban rail rail_electric rail_fast ship"/>
    <edge id="-1043696004" from="9605267300" to="9605267299" priority="2" type="highway.living_street" numLanes="1" speed="2.78" disallow="tram rail_urban rail rail_electric rail_fast ship"/>
    <edge id="-1058291582" from="1670836950" to="704453307" priority="3" type="highway.residential" numLanes="1" speed="8.33" shape="4745.59,2153.90 4727.63,2116.24 4725.46,2111.90 4722.99,2109.17 4720.12,2107.58" disallow="tram rail_urban rail rail_electric rail_fast ship"/>
    <edge id="-1063054687" from="647925010" to="3930916393" priority="10" type="highway.tertiary" numLanes="1" speed="22.22" disallow="tram rail_urban rail rail_electric rail_fast ship">
        <param key="ref" value="21105"/>
    </edge>
    <edge id="-107956974" from="1239628913" to="1239628878" priority="3" type="highway.residential" numLanes="1" speed="8.33" disallow="tram rail_urban rail rail_electric rail_fast ship"/>
    <edge id="-107956975#0" from="1239628855" to="1239628822" priority="3" type="highway.residential" numLanes="1" speed="8.33" disallow="tram rail_urban rail rail_electric rail_fast ship"/>
    <edge id="-107956975#1" from="1239628932" to="1239628855" priority="3" type="highway.residential" numLanes="1" speed="8.33" disallow="tram rail_urban rail rail_electric rail_fast ship"/>
    <edge id="-107956977#0" from="1239628933" to="9476661197" priority="3" type="highway.residential" numLanes="1" speed="8.33" disallow="tram rail_urban rail rail_electric rail_fast ship"/>
    <edge id="-107956977#1" from="1239628866" to="1239628933" priority="3" type="highway.residential" numLanes="1" speed="8.33" shape="3279.68,142.55 3275.16,136.49 3148.24,73.07" disallow="tram rail_urban rail rail_electric rail_fast ship"/>
    <edge id="-107956977#2" from="1239628861" to="1239628866" priority="3" type="highway.residential" numLanes="1" speed="8.33" shape="3368.40,188.64 3286.39,148.33 3279.68,142.55" disallow="tram rail_urban rail rail_electric rail_fast ship"/>
    <edge id="-107956977#3" from="1239628855" to="1239628861" priority="3" type="highway.residential" numLanes="1" speed="8.33" shape="3454.03,236.59 3448.88,230.86 3368.40,188.64" disallow="tram rail_urban rail rail_electric rail_fast ship"/>
    <edge id="-107956977#4" from="1239628896" to="1239628855" priority="3" type="highway.residential" numLanes="1" speed="8.33" shape="3528.35,283.92 3460.97,242.77 3454.03,236.59" disallow="tram rail_urban rail rail_electric rail_fast ship"/>
    <edge id="-107956977#5" from="1239628890" to="1239628896" priority="3" type="highway.residential" numLanes="1" speed="8.33" disallow="tram rail_urban rail rail_electric rail_fast ship"/>
    <edge id="-107956979#0" from="1239628822" to="9476661171" priority="3" type="highway.residential" numLanes="1" speed="8.33" disallow="tram rail_urban rail rail_electric rail_fast ship"/>
    <edge id="-107956979#1" from="1239628942" to="1239628822" priority="3" type="highway.residential" numLanes="1" speed="8.33" disallow="tram rail_urban rail rail_electric rail_fast ship"/>
    <edge id="-107956979#2" from="1239628950" to="1239628942" priority="3" type="highway.residential" numLanes="1" speed="8.33" disallow="tram rail_urban rail rail_electric rail_fast ship"/>
    <edge id="-107956979#3" from="1239628973" to="1239628950" priority="3" type="highway.residential" numLanes="1" speed="8.33" disallow="tram rail_urban rail rail_electric rail_fast ship"/>
    <edge id="-107956979#4" from="1239628856" to="1239628973" priority="3" type="highway.residential" numLanes="1" speed="8.33" disallow="tram rail_urban rail rail_electric rail_fast ship"/>
    <edge id="-107956981#0" from="1239628840" to="1239628952" priority="3" type="highway.residential" numLanes="1" speed="8.33" shape="2430.54,285.51 2268.75,204.31 2264.31,201.25 2256.42,196.25" disallow="tram rail_urban rail rail_electric rail_fast ship"/>
    <edge id="-107956981#1" from="2406810822" to="1239628840" priority="3" type="highway.residential" numLanes="1" speed="8.33" disallow="tram rail_urban rail rail_electric rail_fast ship"/>
    <edge id="-107956982#0" from="1239628846" to="1239628862" priority="10" type="highway.tertiary" numLanes="1" speed="22.22" disallow="tram rail_urban rail rail_electric rail_fast ship"/>
    <edge id="-107956982#1" from="1239628944" to="1239628846" priority="10" type="highway.tertiary" numLanes="1" speed="22.22" disallow="tram rail_urban rail rail_electric rail_fast ship"/>
    <edge id="-107956982#2" from="1239628935" to="1239628944" priority="10" type="highway.tertiary" numLanes="1" speed="22.22" shape="3115.57,253.10 2977.73,185.07 2940.26,167.07" disallow="tram rail_urban rail rail_electric rail_fast ship"/>
    <edge id="-107956983" from="1239628873" to="1239628848" priority="3" type="highway.residential" numLanes="1" speed="8.33" shape="3195.68,200.57 3190.93,194.65 3176.96,185.50 3069.09,132.72 3002.72,100.10 2980.99,88.47" disallow="tram rail_urban rail rail_electric rail_fast ship"/>
    <edge id="-107956988#0" from="1239628846" to="9476661187" priority="3" type="highway.residential" numLanes="1" speed="8.33" disallow="tram rail_urban rail rail_electric rail_fast ship"/>
    <edge id="-107956988#1" from="1239628894" to="1239628846" priority="3" type="highway.residential" numLanes="1" speed="8.33" shape="2781.01,203.89 2821.76,124.44 2829.19,110.32" disallow="tram rail_urban rail rail_electric rail_fast ship"/>
    <edge id="-107956991#0" from="1239628897" to="1239628891" priority="3" type="highway.residential" numLanes="1" speed="8.33" shape="3192.53,520.08 3204.56,536.57 3248.32,594.63" disallow="tram rail_urban rail rail_electric rail_fast ship"/>
    <edge id="-107956991#1" from="1239628836" to="1239628897" priority="3" type="highway.residential" numLanes="1" speed="8.33" shape="3139.96,451.20 3182.66,507.57 3192.53,520.08" disallow="tram rail_urban rail rail_electric rail_fast ship"/>
    <edge id="-107956994#0" from="1239628922" to="4683695019" priority="3" type="highway.residential" numLanes="1" speed="8.33" disallow="tram rail_urban rail rail_electric rail_fast ship"/>
    <edge id="-107956994#1" from="1239628894" to="1239628922" priority="3" type="highway.residential" numLanes="1" speed="8.33" disallow="tram rail_urban rail rail_electric rail_fast ship"/>
    <edge id="-107956994#2" from="1239628979" to="1239628894" priority="3" type="highway.residential" numLanes="1" speed="8.33" disallow="tram rail_urban rail rail_electric rail_fast ship"/>
    <edge id="-107956994#3" from="1239628826" to="1239628979" priority="3" type="highway.residential" numLanes="1" speed="8.33" disallow="tram rail_urban rail rail_electric rail_fast ship"/>
    <edge id="-107956994#4" from="1239628920" to="1239628826" priority="3" type="highway.residential" numLanes="1" speed="8.33" disallow="tram rail_urban rail rail_electric rail_fast ship"/>
    <edge id="-107956994#5" from="1239628989" to="1239628920" priority="3" type="highway.residential" numLanes="1" speed="8.33" disallow="tram rail_urban rail rail_electric rail_fast ship"/>
    <edge id="-107956996" from="4683679528" to="1239628832" priority="3" type="highway.residential" numLanes="1" speed="8.33" disallow="tram rail_urban rail rail_electric rail_fast ship"/>
    <edge id="-107956998#0" from="1239628840" to="1239628943" priority="3" type="highway.residential" numLanes="1" speed="8.33" shape="2430.54,285.51 2374.80,393.33 2370.21,399.21" disallow="tram rail_urban rail rail_electric rail_fast ship"/>
    <edge id="-107956998#1" from="1239628986" to="1239628840" priority="3" type="highway.residential" numLanes="1" speed="8.33" disallow="tram rail_urban rail rail_electric rail_fast ship"/>
    <edge id="-107956999" from="1239628861" to="1239628877" priority="3" type="highway.residential" numLanes="1" speed="8.33" disallow="tram rail_urban rail rail_electric rail_fast ship"/>
    <edge id="-107957000#0" from="1239628866" to="1239628947" priority="3" type="highway.residential" numLanes="1" speed="8.33" shape="3279.68,142.55 3391.32,65.26 3408.72,54.22 3419.89,39.36" disallow="tram rail_urban rail rail_electric rail_fast ship"/>
    <edge id="-107957000#1" from="1239628873" to="1239628866" priority="3" type="highway.residential" numLanes="1" speed="8.33" disallow="tram rail_urban rail rail_electric rail_fast ship"/>
    <edge id="-107957001#0" from="1239628950" to="1239628967" priority="3" type="highway.residential" numLanes="1" speed="8.33" shape="3732.36,230.04 3809.86,169.07 3845.77,140.82" disallow="tram rail_urban rail rail_electric rail_fast ship"/>
    <edge id="-107957001#1" from="1239628890" to="1239628950" priority="3" type="highway.residential" numLanes="1" speed="8.33" disallow="tram rail_urban rail rail_electric rail_fast ship"/>
    <edge id="-107957001#2" from="1239628887" to="1239628890" priority="3" type="highway.residential" numLanes="1" speed="8.33" shape="3526.07,386.27 3558.90,359.81 3599.40,330.00" disallow="tram rail_urban rail rail_electric rail_fast ship"/>
    <edge id="-107957001#3" from="1239628872" to="1239628887" priority="3" type="highway.residential" numLanes="1" speed="8.33" shape="3293.64,560.92 3439.64,452.61 3526.07,386.27" disallow="tram rail_urban rail rail_electric rail_fast ship"/>
    <edge id="-107957001#4" from="1239628891" to="1239628872" priority="3" type="highway.residential" numLanes="1" speed="8.33" disallow="tram rail_urban rail rail_electric rail_fast ship"/>
    <edge id="-107957001#5" from="1239628961" to="1239628891" priority="3" type="highway.residential" numLanes="1" speed="8.33" disallow="tram rail_urban rail rail_electric rail_fast ship"/>
    <edge id="-107957003#0" from="1239628986" to="1239628881" priority="3" type="highway.residential" numLanes="1" speed="8.33" shape="2486.52,174.73 2380.41,120.99 2373.88,117.68" disallow="tram rail_urban rail rail_electric rail_fast ship"/>
    <edge id="-107957003#1" from="4683695018" to="1239628986" priority="3" type="highway.residential" numLanes="1" speed="8.33" disallow="tram rail_urban rail rail_electric rail_fast ship"/>
    <edge id="-107957003#2" from="1239628925" to="4683695018" priority="3" type="highway.residential" numLanes="1" speed="8.33" disallow="tram rail_urban rail rail_electric rail_fast ship"/>
    <edge id="-107957004#0" from="1239628944" to="1239628848" priority="3" type="highway.residential" numLanes="1" speed="8.33" shape="2940.26,167.07 2958.74,133.22 2973.36,103.31 2977.93,93.78 2980.99,88.47" disallow="tram rail_urban rail rail_electric rail_fast ship"/>
    <edge id="-107957004#1" from="1239628826" to="1239628944" priority="3" type="highway.residential" numLanes="1" speed="8.33" shape="2892.08,260.98 2917.28,210.35 2940.26,167.07" disallow="tram rail_urban rail rail_electric rail_fast ship"/>
    <edge id="-107957005" from="1239628979" to="1239628968" priority="3" type="highway.residential" numLanes="1" speed="8.33" disallow="tram rail_urban rail rail_electric rail_fast ship"/>
    <edge id="-107957006#0" from="1239628942" to="1239628908" priority="3" type="highway.residential" numLanes="1" speed="8.33" shape="3686.54,169.21 3741.34,129.97 3756.11,119.53" disallow="tram rail_urban rail rail_electric rail_fast ship"/>
    <edge id="-107957006#1" from="1239628896" to="1239628942" priority="3" type="highway.residential" numLanes="1" speed="8.33" disallow="tram rail_urban rail rail_electric rail_fast ship"/>
    <edge id="-1084316043" from="1691229416" to="1691229509" priority="3" type="highway.residential" numLanes="1" speed="13.89" shape="5503.74,2647.82 5549.29,2725.57 5552.89,2728.63" disallow="tram rail_urban rail rail_electric rail_fast ship"/>
    <edge id="-1084318270#0" from="1691229391" to="1691229507" priority="3" type="highway.residential" numLanes="1" speed="8.33" shape="5747.30,2078.08 5748.43,2070.48 5747.84,2059.39 5743.26,2043.72 5720.75,1965.50 5719.73,1961.96" disallow="tram rail_urban rail rail_electric rail_fast ship"/>
    <edge id="-1084318270#1" from="1691229513" to="1691229391" priority="3" type="highway.residential" numLanes="1" speed="8.33" disallow="tram rail_urban rail rail_electric rail_fast ship"/>
    <edge id="-1084318270#2" from="1691229455" to="1691229513" priority="3" type="highway.residential" numLanes="1" speed="8.33" disallow="tram rail_urban rail rail_electric rail_fast ship"/>
    <edge id="-1084318271#0" from="1691229479" to="9936269294" priority="3" type="highway.residential" numLanes="1" speed="13.89" shape="5670.41,2440.59 5669.93,2407.43 5663.98,2365.63" disallow="tram rail_urban rail rail_electric rail_fast ship"/>
    <edge id="-1084318271#1" from="3297669035" to="1691229479" priority="3" type="highway.residential" numLanes="1" speed="13.89" disallow="tram rail_urban rail rail_electric rail_fast ship"/>
    <edge id="-1084318271#2" from="1691229509" to="3297669035" priority="3" type="highway.residential" numLanes="1" speed="13.89" shape="5552.89,2728.63 5612.58,2598.14 5669.42,2463.50" disallow="tram rail_urban rail rail_electric rail_fast ship"/>
    <edge id="-1084364487#0" from="1696797472" to="1696797415" priority="3" type="highway.residential" numLanes="1" speed="13.89" disallow="tram rail_urban rail rail_electric rail_fast ship"/>
    <edge id="-1084364487#1" from="2602682450" to="1696797472" priority="3" type="highway.residential" numLanes="1" speed="13.89" shape="4614.30,1400.07 4759.94,1284.41 4765.04,1280.35" disallow="tram rail_urban rail rail_electric rail_fast ship"/>
    <edge id="-1084364487#2" from="1696797343" to="2602682450" priority="3" type="highway.residential" numLanes="1" speed="13.89" disallow="tram rail_urban rail rail_electric rail_fast ship"/>
    <edge id="-1084364488" from="1696797432" to="1696797472" priority="3" type="highway.residential" numLanes="1" speed="13.89" disallow="tram rail_urban rail rail_electric rail_fast ship"/>
    <edge id="-1084368857" from="1696797348" to="1145944222" priority="3" type="highway.residential" numLanes="1" speed="13.89" shape="5156.78,1424.81 5149.48,1444.67 5148.06,1448.19" disallow="tram rail_urban rail rail_electric rail_fast ship"/>
    <edge id="-1084368858#0" from="1696797365" to="1118450379" priority="3" type="highway.residential" numLanes="1" speed="8.33" shape="5559.83,690.53 5585.71,662.64 5592.37,653.22 5595.00,644.70 5596.70,630.58 5597.26,559.24" disallow="tram rail_urban rail rail_electric rail_fast ship"/>
    <edge id="-1084368858#1" from="1696797450" to="1696797365" priority="3" type="highway.residential" numLanes="1" speed="8.33" disallow="tram rail_urban rail rail_electric rail_fast ship"/>
    <edge id="-1084368858#2" from="1696797391" to="1696797450" priority="3" type="highway.residential" numLanes="1" speed="8.33" shape="5116.65,1177.83 5117.90,1176.46 5342.21,931.12" disallow="tram rail_urban rail rail_electric rail_fast ship"/>
    <edge id="-1084372934" from="1696797453" to="1145940342" priority="3" type="highway.residential" numLanes="1" speed="13.89" shape="4607.24,1699.99 4640.49,1717.15 4654.86,1723.60 4669.46,1727.23 4690.86,1728.59 4718.08,1726.08 4759.48,1720.67 4789.80,1712.36" disallow="tram rail_urban rail rail_electric rail_fast ship"/>
    <edge id="-1084375413#0" from="1691229485" to="9936871784" priority="3" type="highway.residential" numLanes="1" speed="8.33" disallow="tram rail_urban rail rail_electric rail_fast ship"/>
    <edge id="-1084375413#1" from="1691229484" to="1691229485" priority="3" type="highway.residential" numLanes="1" speed="8.33" shape="5024.76,2897.60 4942.06,2811.88 4937.63,2807.29" disallow="tram rail_urban rail rail_electric rail_fast ship"/>
    <edge id="-1084406041" from="1693854646" to="1693854719" priority="3" type="highway.residential" numLanes="1" speed="13.89" shape="4675.92,4703.66 4673.21,4721.47 4673.46,4741.29 4673.29,4764.83 4674.86,4777.54 4670.97,4948.47" disallow="tram rail_urban rail rail_electric rail_fast ship"/>
    <edge id="-1084425831" from="1693854668" to="1693854688" priority="3" type="highway.residential" numLanes="1" speed="13.89" disallow="tram rail_urban rail rail_electric rail_fast ship"/>
    <edge id="-1084455863" from="704453318" to="9092434197" priority="3" type="highway.residential" numLanes="1" speed="8.33" shape="5078.68,2194.62 5073.10,2197.14 4851.76,2297.16" disallow="tram rail_urban rail rail_electric rail_fast ship"/>
    <edge id="-1084455865" from="9092434197" to="1691229486" priority="3" type="highway.residential" numLanes="1" speed="13.89" shape="4851.76,2297.16 4843.52,2299.45 4836.36,2303.94 4832.94,2313.28 4831.29,2318.85 4825.72,2321.49" disallow="tram rail_urban rail rail_electric rail_fast ship"/>
    <edge id="-1084465195" from="968583007" to="9937667505" priority="3" type="highway.residential" numLanes="1" speed="8.33" disallow="tram rail_urban rail rail_electric rail_fast ship"/>
    <edge id="-1084490376" from="2602682452" to="9937919524" priority="3" type="highway.residential" numLanes="1" speed="8.33" shape="4992.23,2043.12 4987.32,2044.98 4983.22,2046.81 4980.45,2048.05 4979.19,2048.61 4958.14,2058.12 4943.90,2064.54" disallow="tram rail_urban rail rail_electric rail_fast ship"/>
    <edge id="-1084490378" from="2602682454" to="2602682452" priority="3" type="highway.residential" numLanes="1" speed="11.11" shape="5026.74,2094.99 4994.51,2046.56 4992.23,2043.12" disallow="tram rail_urban rail rail_electric rail_fast ship"/>
    <edge id="-1084722020" from="968583030" to="7102262766" priority="3" type="highway.residential" numLanes="1" speed="13.89" shape="5115.40,2284.77 5120.77,2282.48 5121.27,2282.26 5355.15,2182.41" disallow="tram rail_urban rail rail_electric rail_fast ship"/>
    <edge id="-1085134598" from="1693854657" to="1691229499" priority="3" type="highway.residential" numLanes="1" speed="8.33" shape="4536.93,3040.53 4542.23,3044.29 4543.59,3045.24 4692.18,3150.94" disallow="tram rail_urban rail rail_electric rail_fast ship"/>
    <edge id="-1085596601#0" from="10762173672" to="1670836972" priority="3" type="highway.residential" numLanes="1" speed="8.33" shape="4965.39,2428.56 4964.57,2427.92 4963.24,2426.36" disallow="tram rail_urban rail rail_electric rail_fast ship"/>
    <edge id="-1085596601#1" from="1670836976" to="10762173672" priority="3" type="highway.residential" numLanes="1" speed="8.33" shape="5001.44,2465.49 4995.48,2459.53 4965.39,2428.56" disallow="tram rail_urban rail rail_electric rail_fast ship"/>
    <edge id="-1085611235#0" from="1670836972" to="1670836960" priority="3" type="highway.residential" numLanes="1" speed="8.33" shape="4963.24,2426.36 4960.61,2424.34 4938.06,2407.04 4923.99,2397.08 4900.17,2385.11" disallow="tram rail_urban rail rail_electric rail_fast ship"/>
    <edge id="-1085611235#1" from="10762173672" to="1670836972" priority="3" type="highway.residential" numLanes="1" speed="8.33" disallow="tram rail_urban rail rail_electric rail_fast ship"/>
    <edge id="-1085611235#2" from="1670836976" to="10762173672" priority="3" type="highway.residential" numLanes="1" speed="8.33" disallow="tram rail_urban rail rail_electric rail_fast ship"/>
    <edge id="-1086645087" from="4842355834" to="1145942948" priority="3" type="highway.residential" numLanes="1" speed="13.89" shape="5070.61,1569.79 5073.05,1595.05 5073.74,1607.51 5070.64,1613.42 5066.52,1618.45 5062.40,1620.12" disallow="tram rail_urban rail rail_electric rail_fast ship"/>
    <edge id="-1087517927" from="1696797325" to="1696797391" priority="3" type="highway.residential" numLanes="1" speed="13.89" shape="5189.03,1198.97 5177.99,1193.46 5122.65,1177.97 5116.65,1177.83" disallow="tram rail_urban rail rail_electric rail_fast ship"/>
    <edge id="-1087925157" from="647924827" to="968582964" priority="10" type="highway.tertiary" numLanes="1" speed="22.22" shape="4770.28,901.83 4757.04,863.92 4743.86,826.11 4737.24,809.35 4728.40,792.47 4718.93,777.71 4709.80,762.67 4701.13,749.83 4691.40,737.31 4650.30,691.97 4635.51,675.89 4608.10,646.85" disallow="tram rail_urban rail rail_electric rail_fast ship"/>
    <edge id="-1088209305#0" from="1696797411" to="647924827" priority="10" type="highway.tertiary" numLanes="1" speed="11.11" shape="4817.71,1034.89 4795.82,969.75 4770.28,901.83" disallow="tram rail_urban rail rail_electric rail_fast ship"/>
    <edge id="-1088209305#1" from="1696797344" to="1696797411" priority="10" type="highway.tertiary" numLanes="1" speed="11.11" disallow="tram rail_urban rail rail_electric rail_fast ship"/>
    <edge id="-1088209305#2" from="9970343096" to="1696797344" priority="10" type="highway.tertiary" numLanes="1" speed="11.11" shape="4851.95,1131.96 4845.08,1113.00 4821.86,1046.21" disallow="tram rail_urban rail rail_electric rail_fast ship"/>
    <edge id="-1088409220" from="2602682452" to="8566556323" priority="3" type="highway.residential" numLanes="1" speed="13.89" disallow="tram rail_urban rail rail_electric rail_fast ship"/>
    <edge id="-1088409228" from="704468231" to="1145940342" priority="3" type="highway.residential" numLanes="1" speed="8.33" disallow="tram rail_urban rail rail_electric rail_fast ship"/>
    <edge id="-1088409229" from="1145940342" to="36268805" priority="3" type="highway.residential" numLanes="1" speed="13.89" shape="4789.80,1712.36 4789.54,1703.95 4790.32,1695.97 4792.84,1688.01 4794.24,1684.30" disallow="tram rail_urban rail rail_electric rail_fast ship"/>
    <edge id="-1088495192" from="1670836951" to="1670813954" priority="3" type="highway.residential" numLanes="1" speed="8.33" shape="4770.73,2216.59 4728.49,2243.50 4726.53,2244.87 4721.70,2247.83" disallow="tram rail_urban rail rail_electric rail_fast ship"/>
    <edge id="-1088745550" from="968583030" to="9974350928" priority="3" type="highway.residential" numLanes="1" speed="8.33" shape="5115.40,2284.77 5114.71,2282.41 5110.95,2269.75 5100.31,2244.67" disallow="tram rail_urban rail rail_electric rail_fast ship"/>
    <edge id="-1088745553" from="9974350928" to="704453318" priority="3" type="highway.residential" numLanes="1" speed="8.33" shape="5100.31,2244.67 5094.11,2230.67 5081.01,2200.29 5078.68,2194.62" disallow="tram rail_urban rail rail_electric rail_fast ship"/>
    <edge id="-1088745557" from="9937667507" to="2602682454" priority="3" type="highway.residential" numLanes="1" speed="8.33" shape="5068.17,2079.54 5057.70,2080.40 5031.36,2092.81 5026.74,2094.99" disallow="tram rail_urban rail rail_electric rail_fast ship"/>
    <edge id="-1089707869" from="9981777716" to="1693854593" priority="3" type="highway.residential" numLanes="1" speed="13.89" shape="4107.40,3263.85 4145.78,3243.84 4197.91,3216.18" disallow="tram rail_urban rail rail_electric rail_fast ship"/>
    <edge id="-1090567849" from="9988966216" to="1340029425" priority="3" type="highway.residential" numLanes="1" speed="8.33" shape="4617.04,3761.13 4627.91,3722.91 4631.51,3704.02 4635.21,3679.69 4634.63,3661.59 4632.83,3657.38 4632.12,3655.71 4628.94,3650.04" disallow="tram rail_urban rail rail_electric rail_fast ship"/>
    <edge id="-1090698684" from="930229219" to="1239628913" priority="10" type="highway.tertiary" numLanes="1" speed="22.22" shape="3153.91,797.85 3166.22,788.47 3355.36,645.61" disallow="tram rail_urban rail rail_electric rail_fast ship"/>
    <edge id="-1091043854" from="9993145174" to="968582973" priority="3" type="highway.residential" numLanes="1" speed="8.33" shape="5079.72,2406.89 5112.52,2382.35 5118.41,2376.45 5121.50,2370.29" disallow="tram rail_urban rail rail_electric rail_fast ship"/>
    <edge id="-1091228257" from="9994806084" to="9994806055" priority="10" type="highway.tertiary" numLanes="1" speed="8.33" shape="4897.96,1263.37 4876.17,1201.42 4875.43,1199.32" disallow="tram rail_urban rail rail_electric rail_fast ship"/>
    <edge id="-1091228258" from="1696797308" to="9970343096" priority="10" type="highway.tertiary" numLanes="1" speed="8.33" shape="4869.78,1183.32 4867.04,1175.51 4864.98,1169.59 4857.96,1149.31 4851.95,1131.96" disallow="tram rail_urban rail rail_electric rail_fast ship"/>
    <edge id="-1092330769" from="1693854671" to="1693854627" priority="3" type="highway.residential" numLanes="1" speed="13.89" disallow="tram rail_urban rail rail_electric rail_fast ship"/>
    <edge id="-1092330770" from="10004044933" to="1693854671" priority="3" type="highway.residential" numLanes="1" speed="13.89" disallow="tram rail_urban rail rail_electric rail_fast ship"/>
    <edge id="-1092330771" from="1693854688" to="10004044933" priority="3" type="highway.residential" numLanes="1" speed="13.89" disallow="tram rail_urban rail rail_electric rail_fast ship"/>
    <edge id="-1105612817" from="6591153767" to="1693854692" priority="3" type="highway.residential" numLanes="1" speed="13.89" disallow="tram rail_urban rail rail_electric rail_fast ship"/>
    <edge id="-1105612819#0" from="1693854648" to="1693854700" priority="3" type="highway.residential" numLanes="1" speed="13.89" shape="4509.50,3584.03 4486.15,3570.75 4480.21,3567.36 4472.25,3562.84 4461.36,3556.11 4450.58,3549.44 4445.03,3546.66 4440.62,3544.33 4432.27,3539.90" disallow="tram rail_urban rail rail_electric rail_fast ship"/>
    <edge id="-1105612819#1" from="1693854677" to="1693854648" priority="3" type="highway.residential" numLanes="1" speed="13.89" disallow="tram rail_urban rail rail_electric rail_fast ship"/>
    <edge id="-1105612819#2" from="1693854623" to="1693854677" priority="3" type="highway.residential" numLanes="1" speed="13.89" disallow="tram rail_urban rail rail_electric rail_fast ship"/>
    <edge id="-1105612819#3" from="1340029425" to="1693854623" priority="3" type="highway.residential" numLanes="1" speed="13.89" shape="4628.94,3650.04 4613.87,3641.08 4587.92,3625.96" disallow="tram rail_urban rail rail_electric rail_fast ship"/>
    <edge id="-1105612819#4" from="1693854592" to="1340029425" priority="3" type="highway.residential" numLanes="1" speed="13.89" shape="4669.52,3667.59 4648.38,3658.67 4628.94,3650.04" disallow="tram rail_urban rail rail_electric rail_fast ship"/>
    <edge id="-1105612819#5" from="968582935" to="1693854592" priority="3" type="highway.residential" numLanes="1" speed="13.89" disallow="tram rail_urban rail rail_electric rail_fast ship"/>
    <edge id="-1105612819#6" from="968583018" to="968582935" priority="3" type="highway.residential" numLanes="1" speed="13.89" shape="4849.01,3727.45 4846.78,3733.67 4841.06,3747.67 4830.53,3762.93 4813.94,3770.12 4793.75,3767.14 4775.84,3754.40 4755.84,3727.69 4740.66,3707.17 4719.68,3694.41" disallow="tram rail_urban rail rail_electric rail_fast ship"/>