<?xml version="1.0" encoding="UTF-8"?>

<!-- generated on 2023-12-13 09:40:13 by Eclipse SUMO netedit Version 1.19.0
<configuration xmlns:xsi="http://www.w3.org/2001/XMLSchema-instance" xsi:noNamespaceSchemaLocation="http://sumo.dlr.de/xsd/neteditConfiguration.xsd">

    <input>
        <sumo-net-file value="/Users/zoltanvarga/Desktop/SUMO/Sumo_simulation_code/csomor1.net.xml"/>
    </input>

    <processing>
        <geometry.min-radius.fix.railways value="false"/>
        <geometry.max-grade.fix value="false"/>
        <offset.disable-normalization value="true"/>
        <lefthand value="0"/>
    </processing>

    <junctions>
        <no-turnarounds value="true"/>
        <junctions.corner-detail value="5"/>
        <junctions.limit-turn-speed value="5.50"/>
        <rectangular-lane-cut value="0"/>
    </junctions>

    <pedestrian>
        <walkingareas value="0"/>
    </pedestrian>

</configuration>
-->

<connections version="1.16" xmlns:xsi="http://www.w3.org/2001/XMLSchema-instance" xsi:noNamespaceSchemaLocation="http://sumo.dlr.de/xsd/connections_file.xsd">
    <connection from="-1003002050" to="157166788#0" fromLane="0" toLane="0"/>

    <connection from="-1004156944" to="-115606973#1" fromLane="0" toLane="0"/>
    <connection from="-1004156944" to="-706468123#2" fromLane="0" toLane="0"/>
    <connection from="-1004156944" to="1004156944" fromLane="0" toLane="0"/>

    <connection from="-1004940216" to="154550571#0" fromLane="0" toLane="0"/>
    <connection from="-1004940216" to="-1058291582" fromLane="0" toLane="0"/>
    <connection from="-1004940216" to="1004940216" fromLane="0" toLane="0"/>

    <connection from="-1004940217#0" to="-154550571#1" fromLane="0" toLane="0"/>
    <connection from="-1004940217#0" to="1084455865" fromLane="0" toLane="0"/>
    <connection from="-1004940217#0" to="1004940217#0" fromLane="0" toLane="0"/>

    <connection from="-1004940217#1" to="-1004940217#0" fromLane="0" toLane="0"/>
    <connection from="-1004940217#1" to="1004940217#1" fromLane="0" toLane="0"/>

    <connection from="-1004940218" to="154549428#4" fromLane="0" toLane="0"/>
    <connection from="-1004940218" to="-154549428#3" fromLane="0" toLane="0"/>
    <connection from="-1004940218" to="1004940218" fromLane="0" toLane="0"/>

    <connection from="-1004940219" to="-1089707869" fromLane="0" toLane="0"/>

    <connection from="-1043696004" to="1043696004" fromLane="0" toLane="0"/>

    <connection from="-1058291582" to="-154550572" fromLane="0" toLane="0"/>

    <connection from="-1063054687" to="-1122919716#1" fromLane="0" toLane="0"/>

    <connection from="-107956974" to="262678443" fromLane="0" toLane="0"/>
    <connection from="-107956974" to="953688447#0" fromLane="0" toLane="0"/>
    <connection from="-107956974" to="107956974" fromLane="0" toLane="0"/>

    <connection from="-107956975#0" to="-107956979#0" fromLane="0" toLane="0"/>
    <connection from="-107956975#0" to="107956979#1" fromLane="0" toLane="0"/>
    <connection from="-107956975#0" to="107956975#0" fromLane="0" toLane="0"/>

    <connection from="-107956975#1" to="-107956977#3" fromLane="0" toLane="0"/>
    <connection from="-107956975#1" to="-107956975#0" fromLane="0" toLane="0"/>
    <connection from="-107956975#1" to="107956977#4" fromLane="0" toLane="0"/>
    <connection from="-107956975#1" to="107956975#1" fromLane="0" toLane="0"/>

    <connection from="-107956977#0" to="107956977#0" fromLane="0" toLane="0"/>

    <connection from="-107956977#1" to="-107956977#0" fromLane="0" toLane="0"/>

    <connection from="-107956977#2" to="107957000#1" fromLane="0" toLane="0"/>
    <connection from="-107956977#2" to="-107956977#1" fromLane="0" toLane="0"/>
    <connection from="-107956977#2" to="-107957000#0" fromLane="0" toLane="0"/>
    <connection from="-107956977#2" to="107956977#2" fromLane="0" toLane="0"/>

    <connection from="-107956977#3" to="-107956977#2" fromLane="0" toLane="0"/>
    <connection from="-107956977#3" to="-107956999" fromLane="0" toLane="0"/>
    <connection from="-107956977#3" to="107956977#3" fromLane="0" toLane="0"/>

    <connection from="-107956977#4" to="107956975#1" fromLane="0" toLane="0"/>
    <connection from="-107956977#4" to="-107956977#3" fromLane="0" toLane="0"/>
    <connection from="-107956977#4" to="-107956975#0" fromLane="0" toLane="0"/>
    <connection from="-107956977#4" to="107956977#4" fromLane="0" toLane="0"/>

    <connection from="-107956977#5" to="-107956977#4" fromLane="0" toLane="0"/>
    <connection from="-107956977#5" to="-107957006#1" fromLane="0" toLane="0"/>
    <connection from="-107956977#5" to="107956977#5" fromLane="0" toLane="0"/>

    <connection from="-107956979#0" to="79708849#8" fromLane="0" toLane="0"/>
    <connection from="-107956979#0" to="-79708849#7" fromLane="0" toLane="0"/>
    <connection from="-107956979#0" to="107956979#0" fromLane="0" toLane="0"/>

    <connection from="-107956979#1" to="107956975#0" fromLane="0" toLane="0"/>
    <connection from="-107956979#1" to="-107956979#0" fromLane="0" toLane="0"/>
    <connection from="-107956979#1" to="107956979#1" fromLane="0" toLane="0"/>

    <connection from="-107956979#2" to="107957006#1" fromLane="0" toLane="0"/>
    <connection from="-107956979#2" to="-107956979#1" fromLane="0" toLane="0"/>
    <connection from="-107956979#2" to="-107957006#0" fromLane="0" toLane="0"/>
    <connection from="-107956979#2" to="107956979#2" fromLane="0" toLane="0"/>

    <connection from="-107956979#3" to="107957001#1" fromLane="0" toLane="0"/>
    <connection from="-107956979#3" to="-107956979#2" fromLane="0" toLane="0"/>
    <connection from="-107956979#3" to="-107957001#0" fromLane="0" toLane="0"/>
    <connection from="-107956979#3" to="107956979#3" fromLane="0" toLane="0"/>

    <connection from="-107956979#4" to="79709248#1" fromLane="0" toLane="0"/>
    <connection from="-107956979#4" to="-107956979#3" fromLane="0" toLane="0"/>
    <connection from="-107956979#4" to="-79709248#0" fromLane="0" toLane="0"/>
    <connection from="-107956979#4" to="107956979#4" fromLane="0" toLane="0"/>

    <connection from="-107956981#0" to="-1149268490#0" fromLane="0" toLane="0"/>
    <connection from="-107956981#0" to="1149268490#1" fromLane="0" toLane="0"/>
    <connection from="-107956981#0" to="107956981#0" fromLane="0" toLane="0"/>

    <connection from="-107956981#1" to="-107956998#0" fromLane="0" toLane="0"/>
    <connection from="-107956981#1" to="-107956981#0" fromLane="0" toLane="0"/>
    <connection from="-107956981#1" to="107956998#1" fromLane="0" toLane="0"/>
    <connection from="-107956981#1" to="107956981#1" fromLane="0" toLane="0"/>

    <connection from="-107956982#0" to="335062734#0" fromLane="0" toLane="0"/>

    <connection from="-107956982#1" to="107956988#1" fromLane="0" toLane="0"/>
    <connection from="-107956982#1" to="-107956982#0" fromLane="0" toLane="0"/>
    <connection from="-107956982#1" to="-107956988#0" fromLane="0" toLane="0"/>
    <connection from="-107956982#1" to="107956982#1" fromLane="0" toLane="0"/>

    <connection from="-107956982#2" to="107957004#1" fromLane="0" toLane="0"/>
    <connection from="-107956982#2" to="-107956982#1" fromLane="0" toLane="0"/>
    <connection from="-107956982#2" to="-107957004#0" fromLane="0" toLane="0"/>
    <connection from="-107956982#2" to="107956982#2" fromLane="0" toLane="0"/>

    <connection from="-107956983" to="107957004#0" fromLane="0" toLane="0"/>

    <connection from="-107956988#0" to="107956988#0" fromLane="0" toLane="0"/>

    <connection from="-107956988#1" to="-107956982#0" fromLane="0" toLane="0"/>
    <connection from="-107956988#1" to="-107956988#0" fromLane="0" toLane="0"/>
    <connection from="-107956988#1" to="107956982#1" fromLane="0" toLane="0"/>
    <connection from="-107956988#1" to="107956988#1" fromLane="0" toLane="0"/>

    <connection from="-107956991#0" to="-107957001#4" fromLane="0" toLane="0"/>
    <connection from="-107956991#0" to="107957001#5" fromLane="0" toLane="0"/>
    <connection from="-107956991#0" to="107956991#0" fromLane="0" toLane="0"/>

    <connection from="-107956991#1" to="-474402394#0" fromLane="0" toLane="0"/>
    <connection from="-107956991#1" to="-107956991#0" fromLane="0" toLane="0"/>
    <connection from="-107956991#1" to="474402394#1" fromLane="0" toLane="0"/>
    <connection from="-107956991#1" to="107956991#1" fromLane="0" toLane="0"/>

    <connection from="-107956994#0" to="474403876" fromLane="0" toLane="0"/>

    <connection from="-107956994#1" to="335062734#1" fromLane="0" toLane="0"/>
    <connection from="-107956994#1" to="-107956994#0" fromLane="0" toLane="0"/>
    <connection from="-107956994#1" to="-335062734#0" fromLane="0" toLane="0"/>
    <connection from="-107956994#1" to="107956994#1" fromLane="0" toLane="0"/>

    <connection from="-107956994#2" to="-107956994#1" fromLane="0" toLane="0"/>
    <connection from="-107956994#2" to="-107956988#1" fromLane="0" toLane="0"/>
    <connection from="-107956994#2" to="107956994#2" fromLane="0" toLane="0"/>

    <connection from="-107956994#3" to="-107957005" fromLane="0" toLane="0"/>
    <connection from="-107956994#3" to="-107956994#2" fromLane="0" toLane="0"/>
    <connection from="-107956994#3" to="107956994#3" fromLane="0" toLane="0"/>

    <connection from="-107956994#4" to="-107956994#3" fromLane="0" toLane="0"/>
    <connection from="-107956994#4" to="-107957004#1" fromLane="0" toLane="0"/>
    <connection from="-107956994#4" to="107956994#4" fromLane="0" toLane="0"/>

    <connection from="-107956994#5" to="122084983#1" fromLane="0" toLane="0"/>
    <connection from="-107956994#5" to="-107956994#4" fromLane="0" toLane="0"/>
    <connection from="-107956994#5" to="-122084983#0" fromLane="0" toLane="0"/>
    <connection from="-107956994#5" to="107956994#5" fromLane="0" toLane="0"/>

    <connection from="-107956996" to="-262678373#0" fromLane="0" toLane="0"/>
    <connection from="-107956996" to="262678373#1" fromLane="0" toLane="0"/>
    <connection from="-107956996" to="107956996" fromLane="0" toLane="0"/>

    <connection from="-107956998#0" to="819269916#2" fromLane="0" toLane="0"/>
    <connection from="-107956998#0" to="-115604057#1" fromLane="0" toLane="0"/>
    <connection from="-107956998#0" to="-819269916#1" fromLane="0" toLane="0"/>
    <connection from="-107956998#0" to="107956998#0" fromLane="0" toLane="0"/>

    <connection from="-107956998#1" to="107956981#1" fromLane="0" toLane="0"/>
    <connection from="-107956998#1" to="-107956998#0" fromLane="0" toLane="0"/>
    <connection from="-107956998#1" to="-107956981#0" fromLane="0" toLane="0"/>
    <connection from="-107956998#1" to="107956998#1" fromLane="0" toLane="0"/>

    <connection from="-107956999" to="79708849#10" fromLane="0" toLane="0"/>
    <connection from="-107956999" to="-79708849#9" fromLane="0" toLane="0"/>
    <connection from="-107956999" to="107956999" fromLane="0" toLane="0"/>

    <connection from="-107957000#0" to="-79708849#10" fromLane="0" toLane="0"/>

    <connection from="-107957000#1" to="-107956977#1" fromLane="0" toLane="0"/>
    <connection from="-107957000#1" to="-107957000#0" fromLane="0" toLane="0"/>
    <connection from="-107957000#1" to="107956977#2" fromLane="0" toLane="0"/>
    <connection from="-107957000#1" to="107957000#1" fromLane="0" toLane="0"/>

    <connection from="-107957001#0" to="79708849#4" fromLane="0" toLane="0"/>
    <connection from="-107957001#0" to="-79708849#3" fromLane="0" toLane="0"/>
    <connection from="-107957001#0" to="107957001#0" fromLane="0" toLane="0"/>

    <connection from="-107957001#1" to="-107956979#2" fromLane="0" toLane="0"/>
    <connection from="-107957001#1" to="-107957001#0" fromLane="0" toLane="0"/>
    <connection from="-107957001#1" to="107956979#3" fromLane="0" toLane="0"/>
    <connection from="-107957001#1" to="107957001#1" fromLane="0" toLane="0"/>

    <connection from="-107957001#2" to="-107956977#5" fromLane="0" toLane="0"/>
    <connection from="-107957001#2" to="-107957001#1" fromLane="0" toLane="0"/>
    <connection from="-107957001#2" to="107957001#2" fromLane="0" toLane="0"/>

    <connection from="-107957001#3" to="-262678373#1" fromLane="0" toLane="0"/>
    <connection from="-107957001#3" to="-107957001#2" fromLane="0" toLane="0"/>
    <connection from="-107957001#3" to="126986074" fromLane="0" toLane="0"/>
    <connection from="-107957001#3" to="107957001#3" fromLane="0" toLane="0"/>

    <connection from="-107957001#4" to="-107957001#3" fromLane="0" toLane="0"/>
    <connection from="-107957001#4" to="107957001#4" fromLane="0" toLane="0"/>

    <connection from="-107957001#5" to="107956991#0" fromLane="0" toLane="0"/>
    <connection from="-107957001#5" to="-107957001#4" fromLane="0" toLane="0"/>
    <connection from="-107957001#5" to="107957001#5" fromLane="0" toLane="0"/>

    <connection from="-107957003#0" to="-764583446#1" fromLane="0" toLane="0"/>
    <connection from="-107957003#0" to="764583446#2" fromLane="0" toLane="0"/>
    <connection from="-107957003#0" to="107957003#0" fromLane="0" toLane="0"/>

    <connection from="-107957003#1" to="-107956998#1" fromLane="0" toLane="0"/>
    <connection from="-107957003#1" to="-107957003#0" fromLane="0" toLane="0"/>
    <connection from="-107957003#1" to="107957003#1" fromLane="0" toLane="0"/>

    <connection from="-107957003#2" to="-107957003#1" fromLane="0" toLane="0"/>
    <connection from="-107957003#2" to="-474403876" fromLane="0" toLane="0"/>
    <connection from="-107957003#2" to="107957003#2" fromLane="0" toLane="0"/>

    <connection from="-107957004#0" to="107956983" fromLane="0" toLane="0"/>

    <connection from="-107957004#1" to="-107956982#1" fromLane="0" toLane="0"/>
    <connection from="-107957004#1" to="-107957004#0" fromLane="0" toLane="0"/>
    <connection from="-107957004#1" to="107956982#2" fromLane="0" toLane="0"/>
    <connection from="-107957004#1" to="107957004#1" fromLane="0" toLane="0"/>

    <connection from="-107957005" to="830639079#1" fromLane="0" toLane="0"/>
    <connection from="-107957005" to="-830639079#0" fromLane="0" toLane="0"/>
    <connection from="-107957005" to="107957005" fromLane="0" toLane="0"/>

    <connection from="-107957006#0" to="79708849#6" fromLane="0" toLane="0"/>
    <connection from="-107957006#0" to="-79708849#5" fromLane="0" toLane="0"/>
    <connection from="-107957006#0" to="107957006#0" fromLane="0" toLane="0"/>

    <connection from="-107957006#1" to="-107956979#1" fromLane="0" toLane="0"/>
    <connection from="-107957006#1" to="-107957006#0" fromLane="0" toLane="0"/>
    <connection from="-107957006#1" to="107956979#2" fromLane="0" toLane="0"/>
    <connection from="-107957006#1" to="107957006#1" fromLane="0" toLane="0"/>

    <connection from="-1084316043" to="-1084318271#2" fromLane="0" toLane="0"/>

    <connection from="-1084318270#0" to="-382423973" fromLane="0" toLane="0"/>
    <connection from="-1084318270#0" to="382423972" fromLane="0" toLane="0"/>
    <connection from="-1084318270#0" to="1084318270#0" fromLane="0" toLane="0"/>

    <connection from="-1084318270#1" to="-1084318270#0" fromLane="0" toLane="0"/>
    <connection from="-1084318270#1" to="-156878121" fromLane="0" toLane="0"/>
    <connection from="-1084318270#1" to="1084318270#1" fromLane="0" toLane="0"/>

    <connection from="-1084318270#2" to="-1084318270#1" fromLane="0" toLane="0"/>
    <connection from="-1084318270#2" to="-156878153" fromLane="0" toLane="0"/>
    <connection from="-1084318270#2" to="1084318270#2" fromLane="0" toLane="0"/>

    <connection from="-1084318271#0" to="-156878157#4" fromLane="0" toLane="0"/>

    <connection from="-1084318271#1" to="-156878140" fromLane="0" toLane="0"/>
    <connection from="-1084318271#1" to="-1084318271#0" fromLane="0" toLane="0"/>
    <connection from="-1084318271#1" to="524320131#0" fromLane="0" toLane="0"/>
    <connection from="-1084318271#1" to="1084318271#1" fromLane="0" toLane="0"/>

    <connection from="-1084318271#2" to="-1084318271#1" fromLane="0" toLane="0"/>
    <connection from="-1084318271#2" to="322968399#0" fromLane="0" toLane="0"/>
    <connection from="-1084318271#2" to="1084318271#2" fromLane="0" toLane="0"/>

    <connection from="-1084364487#0" to="-157462539" fromLane="0" toLane="0"/>
    <connection from="-1084364487#0" to="1084364487#0" fromLane="0" toLane="0"/>

    <connection from="-1084364487#1" to="1084364489" fromLane="0" toLane="0"/>
    <connection from="-1084364487#1" to="-1084364487#0" fromLane="0" toLane="0"/>
    <connection from="-1084364487#1" to="1084364488" fromLane="0" toLane="0"/>
    <connection from="-1084364487#1" to="1084364487#1" fromLane="0" toLane="0"/>

    <connection from="-1084364487#2" to="-157462546#1" fromLane="0" toLane="0"/>
    <connection from="-1084364487#2" to="-1084364487#1" fromLane="0" toLane="0"/>
    <connection from="-1084364487#2" to="157462546#2" fromLane="0" toLane="0"/>
    <connection from="-1084364487#2" to="1084364487#2" fromLane="0" toLane="0"/>

    <connection from="-1084364488" to="1084364487#1" fromLane="0" toLane="0"/>
    <connection from="-1084364488" to="1084364489" fromLane="0" toLane="0"/>
    <connection from="-1084364488" to="-1084364487#0" fromLane="0" toLane="0"/>
    <connection from="-1084364488" to="1084364488" fromLane="0" toLane="0"/>

    <connection from="-1084368857" to="99059804#1" fromLane="0" toLane="0"/>
    <connection from="-1084368857" to="-99059804#0" fromLane="0" toLane="0"/>
    <connection from="-1084368857" to="1084368857" fromLane="0" toLane="0"/>

    <connection from="-1084368858#0" to="-115726539#2" fromLane="0" toLane="0"/>

    <connection from="-1084368858#1" to="157462534" fromLane="0" toLane="0"/>
    <connection from="-1084368858#1" to="-1084368858#0" fromLane="0" toLane="0"/>
    <connection from="-1084368858#1" to="1084368858#1" fromLane="0" toLane="0"/>

    <connection from="-1084368858#2" to="-157462524" fromLane="0" toLane="0"/>
    <connection from="-1084368858#2" to="-1084368858#1" fromLane="0" toLane="0"/>
    <connection from="-1084368858#2" to="1084368858#2" fromLane="0" toLane="0"/>

    <connection from="-1084372934" to="-1088409229" fromLane="0" toLane="0"/>
    <connection from="-1084372934" to="1088409228" fromLane="0" toLane="0"/>
    <connection from="-1084372934" to="1084372934" fromLane="0" toLane="0"/>

    <connection from="-1084375413#0" to="-204130366#1" fromLane="0" toLane="0"/>

    <connection from="-1084375413#1" to="-156878160#2" fromLane="0" toLane="0"/>
    <connection from="-1084375413#1" to="-1084375413#0" fromLane="0" toLane="0"/>
    <connection from="-1084375413#1" to="156878160#3" fromLane="0" toLane="0"/>
    <connection from="-1084375413#1" to="1084375413#1" fromLane="0" toLane="0"/>

    <connection from="-1084406041" to="157166843#3" fromLane="0" toLane="0"/>
    <connection from="-1084406041" to="-157166843#2" fromLane="0" toLane="0"/>
    <connection from="-1084406041" to="1084406041" fromLane="0" toLane="0"/>

    <connection from="-1084425831" to="-157166837" fromLane="0" toLane="0"/>
    <connection from="-1084425831" to="-1092330771" fromLane="0" toLane="0"/>
    <connection from="-1084425831" to="1084425831" fromLane="0" toLane="0"/>

    <connection from="-1084455863" to="-1084455865" fromLane="0" toLane="0"/>

    <connection from="-1084455865" to="1004940217#0" fromLane="0" toLane="0"/>
    <connection from="-1084455865" to="-154550571#1" fromLane="0" toLane="0"/>
    <connection from="-1084455865" to="1084455865" fromLane="0" toLane="0"/>

    <connection from="-1084465195" to="-262678356#1" fromLane="0" toLane="0"/>

    <connection from="-1084490376" to="-1004940216" fromLane="0" toLane="0"/>

    <connection from="-1084490378" to="-1084490376" fromLane="0" toLane="0"/>
    <connection from="-1084490378" to="-1088409220" fromLane="0" toLane="0"/>
    <connection from="-1084490378" to="56137579#0" fromLane="0" toLane="0"/>
    <connection from="-1084490378" to="1084490378" fromLane="0" toLane="0"/>

    <connection from="-1084722020" to="1084722020" fromLane="0" toLane="0"/>

    <connection from="-1085134598" to="156878160#0" fromLane="0" toLane="0"/>
    <connection from="-1085134598" to="-156878151#1" fromLane="0" toLane="0"/>
    <connection from="-1085134598" to="1085134598" fromLane="0" toLane="0"/>

    <connection from="-1085596601#0" to="-1004940218" fromLane="0" toLane="0"/>
    <connection from="-1085596601#0" to="-1085611235#0" fromLane="0" toLane="0"/>
    <connection from="-1085596601#0" to="156878150" fromLane="0" toLane="0"/>
    <connection from="-1085596601#0" to="1085611235#1" fromLane="0" toLane="0"/>
    <connection from="-1085596601#0" to="1085596601#0" fromLane="0" toLane="0"/>

    <connection from="-1085596601#1" to="-1085596601#0" fromLane="0" toLane="0"/>
    <connection from="-1085596601#1" to="-1085611235#1" fromLane="0" toLane="0"/>
    <connection from="-1085596601#1" to="1085611235#2" fromLane="0" toLane="0"/>
    <connection from="-1085596601#1" to="1085596601#1" fromLane="0" toLane="0"/>

    <connection from="-1085611235#0" to="-1004940217#1" fromLane="0" toLane="0"/>

    <connection from="-1085611235#1" to="-1004940218" fromLane="0" toLane="0"/>
    <connection from="-1085611235#1" to="-1085611235#0" fromLane="0" toLane="0"/>
    <connection from="-1085611235#1" to="156878150" fromLane="0" toLane="0"/>
    <connection from="-1085611235#1" to="1085611235#1" fromLane="0" toLane="0"/>
    <connection from="-1085611235#1" to="1085596601#0" fromLane="0" toLane="0"/>

    <connection from="-1085611235#2" to="-1085596601#0" fromLane="0" toLane="0"/>
    <connection from="-1085611235#2" to="-1085611235#1" fromLane="0" toLane="0"/>
    <connection from="-1085611235#2" to="1085611235#2" fromLane="0" toLane="0"/>
    <connection from="-1085611235#2" to="1085596601#1" fromLane="0" toLane="0"/>

    <connection from="-1086645087" to="-99059673" fromLane="0" toLane="0"/>

    <connection from="-1087517927" to="157462535#0" fromLane="0" toLane="0"/>
    <connection from="-1087517927" to="-157462547#2" fromLane="0" toLane="0"/>
    <connection from="-1087517927" to="-1084368858#2" fromLane="0" toLane="0"/>
    <connection from="-1087517927" to="1087517927" fromLane="0" toLane="0"/>

    <connection from="-1087925157" to="-83249026" fromLane="0" toLane="0"/>

    <connection from="-1088209305#0" to="157462536" fromLane="0" toLane="0"/>
    <connection from="-1088209305#0" to="-1087925157" fromLane="0" toLane="0"/>
    <connection from="-1088209305#0" to="50808919#0" fromLane="0" toLane="0"/>
    <connection from="-1088209305#0" to="1088209305#0" fromLane="0" toLane="0"/>

    <connection from="-1088209305#1" to="-157462542" fromLane="0" toLane="0"/>
    <connection from="-1088209305#1" to="-1088209305#0" fromLane="0" toLane="0"/>
    <connection from="-1088209305#1" to="1088209305#1" fromLane="0" toLane="0"/>

    <connection from="-1088209305#2" to="-1088209305#1" fromLane="0" toLane="0"/>
    <connection from="-1088209305#2" to="157462531#0" fromLane="0" toLane="0"/>
    <connection from="-1088209305#2" to="1088209305#2" fromLane="0" toLane="0"/>

    <connection from="-1088409220" to="-922810936" fromLane="0" toLane="0"/>

    <connection from="-1088409228" to="1084372934" fromLane="0" toLane="0"/>
    <connection from="-1088409228" to="-1088409229" fromLane="0" toLane="0"/>
    <connection from="-1088409228" to="1088409228" fromLane="0" toLane="0"/>

    <connection from="-1088409229" to="-262678387#1" fromLane="0" toLane="0"/>
    <connection from="-1088409229" to="462826432" fromLane="0" toLane="0"/>
    <connection from="-1088409229" to="1088409229" fromLane="0" toLane="0"/>

    <connection from="-1088495192" to="154549428#1" fromLane="0" toLane="0"/>
    <connection from="-1088495192" to="-154549428#0" fromLane="0" toLane="0"/>
    <connection from="-1088495192" to="1088495192" fromLane="0" toLane="0"/>

    <connection from="-1088745550" to="-1088745553" fromLane="0" toLane="0"/>

    <connection from="-1088745553" to="-1084455863" fromLane="0" toLane="0"/>
    <connection from="-1088745553" to="-444557093" fromLane="0" toLane="0"/>
    <connection from="-1088745553" to="83249029" fromLane="0" toLane="0"/>
    <connection from="-1088745553" to="1088745553" fromLane="0" toLane="0"/>

    <connection from="-1088745557" to="444557093" fromLane="0" toLane="0"/>
    <connection from="-1088745557" to="-56137580" fromLane="0" toLane="0"/>
    <connection from="-1088745557" to="-1084490378" fromLane="0" toLane="0"/>
    <connection from="-1088745557" to="1088745557" fromLane="0" toLane="0"/>

    <connection from="-1089707869" to="-113503035#2" fromLane="0" toLane="0"/>
    <connection from="-1089707869" to="157166844#0" fromLane="0" toLane="0"/>
    <connection from="-1089707869" to="1089707869" fromLane="0" toLane="0"/>

    <connection from="-1090567849" to="-1105612819#3" fromLane="0" toLane="0"/>
    <connection from="-1090567849" to="1105612819#4" fromLane="0" toLane="0"/>
    <connection from="-1090567849" to="1090567849" fromLane="0" toLane="0"/>

    <connection from="-1090698684" to="1090910372" fromLane="0" toLane="0"/>
    <connection from="-1090698684" to="-107956974" fromLane="0" toLane="0"/>
    <connection from="-1090698684" to="1090698684" fromLane="0" toLane="0"/>

    <connection from="-1091043854" to="-262678390" fromLane="0" toLane="0"/>
    <connection from="-1091043854" to="-462826456" fromLane="0" toLane="0"/>
    <connection from="-1091043854" to="-156878159" fromLane="0" toLane="0"/>
    <connection from="-1091043854" to="1091043854" fromLane="0" toLane="0"/>

    <connection from="-1091228257" to="-1125056724" fromLane="0" toLane="0"/>

    <connection from="-1091228258" to="-1088209305#2" fromLane="0" toLane="0"/>

    <connection from="-1092330769" to="-157166819#2" fromLane="0" toLane="0"/>
    <connection from="-1092330769" to="-157166801#1" fromLane="0" toLane="0"/>
    <connection from="-1092330769" to="1092330769" fromLane="0" toLane="0"/>

    <connection from="-1092330770" to="-1092330769" fromLane="0" toLane="0"/>
    <connection from="-1092330770" to="157166848#0" fromLane="0" toLane="0"/>
    <connection from="-1092330770" to="1092330770" fromLane="0" toLane="0"/>

    <connection from="-1092330771" to="-1092330770" fromLane="0" toLane="0"/>

    <connection from="-1105612817" to="256055435" fromLane="0" toLane="0"/>

    <connection from="-1105612819#0" to="-157166783" fromLane="0" toLane="0"/>
    <connection from="-1105612819#0" to="-701853902" fromLane="0" toLane="0"/>
    <connection from="-1105612819#0" to="1105612819#0" fromLane="0" toLane="0"/>

    <connection from="-1105612819#1" to="-1105612819#0" fromLane="0" toLane="0"/>
    <connection from="-1105612819#1" to="-157166818" fromLane="0" toLane="0"/>
    <connection from="-1105612819#1" to="1105612819#1" fromLane="0" toLane="0"/>

    <connection from="-1105612819#2" to="-157166840#1" fromLane="0" toLane="0"/>
    <connection from="-1105612819#2" to="-1105612819#1" fromLane="0" toLane="0"/>
    <connection from="-1105612819#2" to="1105612819#2" fromLane="0" toLane="0"/>

    <connection from="-1105612819#3" to="-1105612819#2" fromLane="0" toLane="0"/>
    <connection from="-1105612819#3" to="157166825" fromLane="0" toLane="0"/>
    <connection from="-1105612819#3" to="1105612819#3" fromLane="0" toLane="0"/>

    <connection from="-1105612819#4" to="1090567849" fromLane="0" toLane="0"/>
    <connection from="-1105612819#4" to="-1105612819#3" fromLane="0" toLane="0"/>
    <connection from="-1105612819#4" to="1105612819#4" fromLane="0" toLane="0"/>

    <connection from="-1105612819#5" to="-1105612819#4" fromLane="0" toLane="0"/>
    <connection from="-1105612819#5" to="-1003002050" fromLane="0" toLane="0"/>
    <connection from="-1105612819#5" to="1105612819#5" fromLane="0" toLane="0"/>

    <connection from="-1105612819#6" to="-1105612819#5" fromLane="0" toLane="0"/>
    <connection from="-1105612819#6" to="157166839#0" fromLane="0" toLane="0"/>
    <connection from="-1105612819#6" to="1105612819#6" fromLane="0" toLane="0"/>

    <connection from="-1105612819#7" to="-1105612819#6" fromLane="0" toLane="0"/>
    <connection from="-1105612819#7" to="-157166807" fromLane="0" toLane="0"/>
    <connection from="-1105612819#7" to="1105612819#7" fromLane="0" toLane="0"/>

    <connection from="-1122919716#0" to="1122919719" fromLane="0" toLane="0"/>

    <connection from="-1122919716#1" to="-1122919716#0" fromLane="0" toLane="0"/>
    <connection from="-1122919716#1" to="300483646" fromLane="0" toLane="0"/>
    <connection from="-1122919716#1" to="1122919716#1" fromLane="0" toLane="0"/>

    <connection from="-1125056724" to="157462539" fromLane="0" toLane="0"/>
    <connection from="-1125056724" to="-1091228258" fromLane="0" toLane="0"/>
    <connection from="-1125056724" to="-157462527#3" fromLane="0" toLane="0"/>
    <connection from="-1125056724" to="1125056724" fromLane="0" toLane="0"/>

    <connection from="-1125056725" to="-1091228257" fromLane="0" toLane="0"/>

    <connection from="-113503035#0" to="-204130363#2" fromLane="0" toLane="0"/>
    <connection from="-113503035#0" to="204130363#3" fromLane="0" toLane="0"/>
    <connection from="-113503035#0" to="113503035#0" fromLane="0" toLane="0"/>

    <connection from="-113503035#1" to="-113503035#0" fromLane="0" toLane="0"/>
    <connection from="-113503035#1" to="157166817" fromLane="0" toLane="0"/>