<?xml version="1.0" encoding="UTF-8"?>

<!-- generated on 2023-12-13 09:40:13 by Eclipse SUMO netedit Version 1.19.0
<configuration xmlns:xsi="http://www.w3.org/2001/XMLSchema-instance" xsi:noNamespaceSchemaLocation="http://sumo.dlr.de/xsd/neteditConfiguration.xsd">

    <input>
        <sumo-net-file value="/Users/zoltanvarga/Desktop/SUMO/Sumo_simulation_code/csomor.net.xml"/>
    </input>

    <processing>
        <geometry.min-radius.fix.railways value="false"/>
        <geometry.max-grade.fix value="false"/>
        <offset.disable-normalization value="true"/>
        <lefthand value="0"/>
    </processing>

    <junctions>
        <no-turnarounds value="true"/>
        <junctions.corner-detail value="5"/>
        <junctions.limit-turn-speed value="5.50"/>
        <rectangular-lane-cut value="0"/>
    </junctions>

    <pedestrian>
        <walkingareas value="0"/>
    </pedestrian>

</configuration>
-->

<nodes version="1.16" xmlns:xsi="http://www.w3.org/2001/XMLSchema-instance" xsi:noNamespaceSchemaLocation="http://sumo.dlr.de/xsd/nodes_file.xsd">
    <location netOffset="-361515.59,-5265586.24" convBoundary="0.00,0.00,6818.69,5614.35" origBoundary="19.160019,47.530013,19.249993,47.579571" projParameter="+proj=utm +zone=34 +ellps=WGS84 +datum=WGS84 +units=m +no_defs"/>

    <node id="10004044933" x="4664.39" y="4393.43" type="priority"/>
    <node id="10117228384" x="4362.12" y="3509.94" type="priority"/>
    <node id="10117228386" x="4368.13" y="3530.44" type="priority"/>
    <node id="10117228387" x="4367.21" y="3533.15" type="right_before_left"/>
    <node id="10117228388" x="4384.46" y="3519.49" type="priority"/>
    <node id="10117228392" x="4391.17" y="3504.68" type="priority"/>
    <node id="10117228397" x="4357.12" y="3512.70" type="dead_end"/>
    <node id="10117261552" x="4392.91" y="3508.00" type="priority"/>
    <node id="10269808677" x="3001.72" y="1987.36" type="priority"/>
    <node id="10269808678" x="3057.02" y="1942.96" type="priority"/>
    <node id="10269808679" x="3085.30" y="1925.16" type="priority"/>
    <node id="10269808680" x="3043.27" y="1970.20" type="priority"/>
    <node id="10269808682" x="3033.66" y="1966.57" type="priority"/>
    <node id="10269808683" x="3030.15" y="1962.74" type="priority"/>
    <node id="10269808695" x="3059.58" y="1947.23" type="priority"/>
    <node id="1042634218" x="6667.07" y="178.82" type="priority"/>
    <node id="1043659924" x="6101.30" y="1252.27" type="priority"/>
    <node id="1043700988" x="6638.80" y="946.11" type="priority"/>
    <node id="1043712720" x="6366.44" y="827.80" type="dead_end"/>
    <node id="1043712725" x="6356.50" y="817.91" type="dead_end"/>
    <node id="1043712746" x="6339.23" y="847.58" type="priority"/>
    <node id="104517609" x="1615.69" y="631.82" type="traffic_light" tl="104517609"/>
    <node id="10658885786" x="1536.67" y="579.83" type="priority"/>
    <node id="10691797387" x="1647.54" y="2167.76" type="priority"/>
    <node id="10691797390" x="2284.90" y="177.35" type="priority"/>
    <node id="10691797391" x="1492.39" y="721.36" type="priority"/>
    <node id="10691798707" x="1569.21" y="665.58" type="priority"/>
    <node id="10738788465" x="4647.82" y="2025.36" type="priority"/>
    <node id="10762173672" x="4965.39" y="2428.56" type="right_before_left"/>
    <node id="10781922332" x="1.93" y="333.59" type="priority"/>
    <node id="1078770639" x="5851.54" y="1866.62" type="right_before_left"/>
    <node id="1078770910" x="5885.90" y="1746.38" type="right_before_left"/>
    <node id="1078770912" x="5870.59" y="1619.59" type="priority"/>
    <node id="1078772666" x="5610.95" y="1650.63" type="priority"/>
    <node id="1078785814" x="6018.75" y="1778.55" type="priority"/>
    <node id="1078788552" x="5672.54" y="1852.18" type="priority"/>
    <node id="1078788632" x="5648.66" y="1860.90" type="priority"/>
    <node id="10820212799" x="771.56" y="102.09" type="priority"/>
    <node id="10825132847" x="896.45" y="970.11" type="priority"/>
    <node id="11097185422" x="1695.19" y="578.67" type="priority"/>
    <node id="11148815286" x="4056.69" y="189.16" type="priority"/>
    <node id="11148867470" x="3651.70" y="464.26" type="priority"/>
    <node id="1118450379" x="5597.26" y="559.24" type="priority"/>
    <node id="1118450381" x="5689.46" y="572.68" type="priority"/>
    <node id="1145940342" x="4789.80" y="1712.36" type="priority"/>
    <node id="1145940758" x="5188.90" y="1461.93" type="priority"/>
    <node id="1145940841" x="4888.51" y="1659.12" type="priority"/>
    <node id="1145942948" x="5062.40" y="1620.12" type="priority"/>
    <node id="1145943686" x="3898.54" y="450.07" type="right_before_left"/>
    <node id="1145944222" x="5148.06" y="1448.19" type="priority"/>
    <node id="1145945171" x="4948.90" y="1421.22" type="priority"/>
    <node id="1239628822" x="3641.92" y="107.72" type="right_before_left"/>
    <node id="1239628826" x="2892.08" y="260.98" type="right_before_left"/>
    <node id="1239628832" x="3447.24" y="336.55" type="priority"/>
    <node id="1239628836" x="3139.96" y="451.20" type="right_before_left"/>
    <node id="1239628840" x="2430.54" y="285.51" type="right_before_left"/>
    <node id="1239628841" x="3272.07" y="857.65" type="priority"/>
    <node id="1239628845" x="2675.56" y="554.07" type="priority"/>
    <node id="1239628846" x="2829.19" y="110.32" type="priority"/>
    <node id="1239628848" x="2980.99" y="88.47" type="priority"/>
    <node id="1239628855" x="3454.03" y="236.59" type="right_before_left"/>
    <node id="1239628856" x="3866.07" y="410.69" type="priority"/>
    <node id="1239628859" x="3293.78" y="346.62" type="right_before_left"/>
    <node id="1239628861" x="3368.40" y="188.64" type="right_before_left"/>
    <node id="1239628862" x="2734.04" y="61.71" type="priority"/>
    <node id="1239628866" x="3279.68" y="142.55" type="right_before_left"/>
    <node id="1239628872" x="3293.64" y="560.92" type="right_before_left"/>
    <node id="1239628873" x="3195.68" y="200.57" type="priority"/>
    <node id="1239628877" x="3541.42" y="68.06" type="right_before_left"/>
    <node id="1239628878" x="3427.31" y="741.62" type="right_before_left"/>
    <node id="1239628881" x="2373.88" y="117.68" type="priority"/>
    <node id="1239628884" x="3628.16" y="88.20" type="priority"/>
    <node id="1239628887" x="3526.07" y="386.27" type="priority"/>
    <node id="1239628890" x="3599.40" y="330.00" type="right_before_left"/>
    <node id="1239628891" x="3248.32" y="594.63" type="right_before_left"/>
    <node id="1239628894" x="2781.01" y="203.89" type="right_before_left"/>
    <node id="1239628896" x="3528.35" y="283.92" type="right_before_left"/>
    <node id="1239628897" x="3192.53" y="520.08" type="right_before_left"/>
    <node id="1239628898" x="3092.00" y="482.80" type="right_before_left"/>
    <node id="1239628900" x="2520.40" y="475.88" type="priority"/>
    <node id="1239628907" x="2913.03" y="390.94" type="right_before_left"/>
    <node id="1239628908" x="3756.11" y="119.53" type="right_before_left"/>
    <node id="1239628913" x="3355.36" y="645.61" type="priority"/>
    <node id="1239628920" x="3013.13" y="323.47" type="right_before_left"/>
    <node id="1239628922" x="2684.50" y="155.62" type="right_before_left"/>
    <node id="1239628924" x="2854.10" y="645.61" type="priority"/>
    <node id="1239628925" x="2635.65" y="250.26" type="right_before_left"/>
    <node id="1239628932" x="3373.86" y="291.70" type="priority"/>
    <node id="1239628933" x="3148.24" y="73.07" type="priority"/>
    <node id="1239628935" x="3115.57" y="253.10" type="priority"/>
    <node id="1239628942" x="3686.54" y="169.21" type="right_before_left"/>
    <node id="1239628943" x="2370.21" y="399.21" type="priority"/>
    <node id="1239628944" x="2940.26" y="167.07" type="priority"/>
    <node id="1239628946" x="3621.69" y="445.91" type="priority"/>
    <node id="1239628947" x="3419.89" y="39.36" type="priority"/>
    <node id="1239628950" x="3732.36" y="230.04" type="right_before_left"/>
    <node id="1239628951" x="2794.95" y="472.28" type="right_before_left"/>
    <node id="1239628952" x="2256.42" y="196.25" type="priority"/>
    <node id="1239628961" x="3048.58" y="744.40" type="priority"/>
    <node id="1239628967" x="3845.77" y="140.82" type="right_before_left"/>
    <node id="1239628968" x="2769.06" y="317.37" type="right_before_left"/>
    <node id="1239628973" x="3796.16" y="314.98" type="right_before_left"/>
    <node id="1239628976" x="2973.71" y="563.26" type="right_before_left"/>
    <node id="1239628979" x="2817.92" y="222.50" type="right_before_left"/>
    <node id="1239628986" x="2486.52" y="174.73" type="right_before_left"/>
    <node id="1239628987" x="2951.23" y="694.66" type="priority"/>
    <node id="1239628988" x="3729.01" y="511.53" type="right_before_left"/>
    <node id="1239628989" x="3194.62" y="415.34" type="right_before_left"/>
    <node id="1246121983" x="2117.46" y="1391.44" type="priority"/>
    <node id="1269674438" x="6652.29" y="881.56" type="dead_end"/>
    <node id="1286736674" x="4559.64" y="2972.18" type="priority"/>
    <node id="1286736676" x="3819.29" y="3425.82" type="priority"/>
    <node id="1305615863" x="1920.18" y="426.03" type="priority"/>
    <node id="1305615867" x="607.32" y="187.82" type="priority"/>
    <node id="1305615868" x="1775.27" y="329.67" type="priority"/>
    <node id="1305615877" x="1845.43" y="476.78" type="priority"/>
    <node id="1305615878" x="1721.53" y="396.71" type="priority"/>
    <node id="1305615879" x="1769.14" y="527.76" type="priority"/>
    <node id="1305615880" x="1650.59" y="451.03" type="priority"/>
    <node id="1305615881" x="1392.91" y="385.97" type="right_before_left"/>
    <node id="1305615882" x="1690.54" y="581.83" type="priority"/>
    <node id="1305615883" x="1581.78" y="505.69" type="priority"/>
    <node id="1305615886" x="1706.40" y="386.25" type="priority"/>
    <node id="1305615887" x="1655.89" y="353.64" type="priority"/>
    <node id="1305615888" x="1636.45" y="442.59" type="priority"/>
    <node id="1305615899" x="2055.36" y="98.15" type="priority"/>
    <node id="1305615900" x="1917.93" y="209.12" type="priority"/>
    <node id="1305615901" x="1073.77" y="685.96" type="right_before_left"/>
    <node id="1305615902" x="1254.59" y="399.23" type="priority"/>
    <node id="1305615904" x="240.55" y="151.61" type="priority"/>
    <node id="1305615905" x="94.81" y="382.44" type="right_before_left"/>
    <node id="1305615906" x="685.86" y="238.13" type="right_before_left"/>
    <node id="1305615907" x="747.48" y="379.21" type="priority"/>
    <node id="1305615908" x="561.38" y="259.23" type="right_before_left"/>
    <node id="1305615909" x="516.85" y="328.96" type="priority"/>
    <node id="1305634661" x="1516.04" y="1367.30" type="priority"/>
    <node id="1305634662" x="1723.68" y="871.56" type="right_before_left"/>
    <node id="1305634663" x="1568.59" y="769.77" type="priority"/>
    <node id="1305634664" x="1643.93" y="649.62" type="priority"/>
    <node id="1305634665" x="1977.64" y="1001.17" type="priority"/>
    <node id="1305634666" x="1748.16" y="853.93" type="priority"/>
    <node id="1305634667" x="2200.37" y="1144.25" type="priority"/>
    <node id="1305634668" x="1654.03" y="924.01" type="priority"/>
    <node id="1305634669" x="2114.20" y="1218.44" type="priority"/>
    <node id="1305634670" x="1318.43" y="844.16" type="priority"/>
    <node id="1305634671" x="1417.41" y="775.82" type="priority"/>
    <node id="1305634674" x="1764.00" y="725.01" type="right_before_left"/>
    <node id="1305634678" x="1238.99" y="791.42" type="priority"/>
    <node id="1305634679" x="2022.05" y="1294.93" type="priority"/>
    <node id="1305634680" x="1695.19" y="1221.12" type="priority"/>
    <node id="1305634681" x="1368.11" y="1077.17" type="priority"/>
    <node id="1305634682" x="1922.64" y="1373.89" type="priority"/>
    <node id="1305634683" x="1469.67" y="1077.28" type="priority"/>
    <node id="1305634684" x="1721.71" y="1364.36" type="priority"/>
    <node id="1305634685" x="1605.61" y="1294.09" type="priority"/>
    <node id="1305634686" x="1842.54" y="1435.40" type="priority"/>
    <node id="1305634687" x="1463.63" y="937.25" type="priority"/>
    <node id="1305634688" x="1376.81" y="1149.87" type="priority"/>
    <node id="1305634690" x="1236.89" y="1188.78" type="priority"/>
    <node id="1305634691" x="1045.81" y="1403.74" type="priority"/>
    <node id="1305634692" x="1792.23" y="1144.90" type="priority"/>
    <node id="1305634693" x="1561.94" y="999.08" type="priority"/>
    <node id="1305634694" x="2414.82" y="602.37" type="right_before_left"/>
    <node id="1305634695" x="2344.39" y="669.53" type="right_before_left"/>
    <node id="1305634696" x="884.24" y="1394.13" type="priority"/>
    <node id="1305634697" x="2197.18" y="810.73" type="right_before_left"/>
    <node id="1305634698" x="1325.10" y="1048.85" type="priority"/>
    <node id="1305634699" x="897.77" y="1517.16" type="priority"/>
    <node id="1305634700" x="1423.18" y="1113.43" type="priority"/>
    <node id="1305634702" x="2292.97" y="1063.71" type="priority"/>
    <node id="1305634703" x="1212.99" y="972.80" type="priority"/>
    <node id="1305634704" x="2075.63" y="927.10" type="priority"/>
    <node id="1305634705" x="1634.66" y="1448.16" type="priority"/>
    <node id="1305634706" x="1846.44" y="777.49" type="right_before_left"/>
    <node id="1305634707" x="1286.68" y="1221.44" type="priority"/>
    <node id="1305634708" x="1108.31" y="1107.20" type="priority"/>
    <node id="1305634709" x="2320.02" y="374.24" type="priority"/>
    <node id="1305634710" x="1875.16" y="795.52" type="right_before_left"/>
    <node id="1305634711" x="1212.78" y="1277.06" type="priority"/>
    <node id="1305634712" x="1054.76" y="1178.31" type="priority"/>
    <node id="1305634713" x="1885.32" y="1071.42" type="priority"/>
    <node id="1305634714" x="1685.81" y="845.06" type="right_before_left"/>
    <node id="1305634715" x="1626.95" y="807.20" type="right_before_left"/>
    <node id="1305634716" x="1704.58" y="687.39" type="priority"/>
    <node id="1305634718" x="966.94" y="1289.33" type="priority"/>
    <node id="1305634719" x="1001.59" y="1247.24" type="priority"/>
    <node id="1305634720" x="933.29" y="1330.26" type="priority"/>
    <node id="1305634721" x="967.51" y="1464.27" type="priority"/>
    <node id="1305634722" x="1076.75" y="1380.89" type="priority"/>
    <node id="1305642660" x="2002.44" y="162.76" type="priority"/>
    <node id="1305642661" x="2080.22" y="316.44" type="priority"/>
    <node id="1305642662" x="1933.59" y="218.91" type="priority"/>
    <node id="1305642663" x="1981.47" y="384.41" type="priority"/>
    <node id="1305642664" x="1842.77" y="293.42" type="priority"/>
    <node id="1305642665" x="1828.13" y="283.31" type="priority"/>
    <node id="1305642666" x="1710.61" y="207.69" type="priority"/>
    <node id="1305642667" x="1987.56" y="154.50" type="priority"/>
    <node id="1305642668" x="1895.22" y="96.17" type="priority"/>
    <node id="1305642669" x="1849.47" y="165.49" type="priority"/>
    <node id="1305642673" x="1673.95" y="266.37" type="priority"/>
    <node id="1305642674" x="2156.31" y="264.67" type="traffic_light" tl="1305642674"/>
    <node id="1305642677" x="1755.63" y="537.58" type="priority"/>
    <node id="1305642678" x="2649.39" y="729.28" type="right_before_left"/>
    <node id="1305642679" x="2499.06" y="873.21" type="right_before_left"/>
    <node id="1305642680" x="2700.31" y="759.87" type="right_before_left"/>
    <node id="1305642681" x="2363.13" y="1008.31" type="right_before_left"/>
    <node id="1305642682" x="2140.06" y="866.64" type="right_before_left"/>
    <node id="1305642683" x="1931.72" y="739.38" type="right_before_left"/>
    <node id="1305642693" x="1914.48" y="429.90" type="priority"/>
    <node id="1305642695" x="2269.10" y="740.69" type="right_before_left"/>
    <node id="1305642696" x="2756.47" y="791.77" type="priority"/>
    <node id="1305642697" x="2061.76" y="619.58" type="right_before_left"/>
    <node id="1305642698" x="2200.06" y="487.52" type="right_before_left"/>
    <node id="1305642699" x="2162.31" y="294.07" type="priority"/>
    <node id="1305642700" x="1990.45" y="378.48" type="priority"/>
    <node id="1305642701" x="2256.63" y="431.28" type="right_before_left"/>
    <node id="1305642702" x="1832.66" y="485.67" type="priority"/>
    <node id="1305642703" x="2573.85" y="800.16" type="right_before_left"/>
    <node id="1305642704" x="2064.34" y="328.18" type="priority"/>
    <node id="1305642705" x="2133.05" y="551.13" type="right_before_left"/>
    <node id="1305642706" x="1988.79" y="686.00" type="right_before_left"/>
    <node id="1305642707" x="2424.12" y="948.68" type="right_before_left"/>
    <node id="1305642710" x="2465.24" y="541.38" type="right_before_left"/>
    <node id="1305642711" x="2771.78" y="699.75" type="right_before_left"/>
    <node id="1305642712" x="2842.98" y="639.88" type="priority"/>
    <node id="1305659208" x="2914.31" y="1140.49" type="priority"/>
    <node id="1305659210" x="2652.33" y="910.53" type="priority"/>
    <node id="1305659211" x="3279.08" y="861.20" type="priority"/>
    <node id="1305659212" x="2295.52" y="1610.52" type="priority"/>
    <node id="1305659213" x="2675.04" y="1316.14" type="priority"/>
    <node id="1305659214" x="2971.02" y="1251.91" type="priority"/>
    <node id="1305659216" x="3008.87" y="1068.47" type="priority"/>
    <node id="1305659226" x="2794.60" y="785.68" type="priority"/>
    <node id="1305659227" x="2919.87" y="678.98" type="priority"/>
    <node id="1305659228" x="3131.22" y="976.51" type="right_before_left"/>
    <node id="1305661209" x="3106.78" y="773.99" type="priority"/>
    <node id="1305661211" x="3027.00" y="837.58" type="right_before_left"/>
    <node id="1305661213" x="2782.78" y="1023.55" type="priority"/>
    <node id="1305661215" x="2904.86" y="930.61" type="right_before_left"/>
    <node id="1305661220" x="2791.19" y="906.68" type="right_before_left"/>
    <node id="1305661221" x="2858.93" y="738.28" type="priority"/>
    <node id="1305661222" x="2756.60" y="862.86" type="priority"/>
    <node id="1305661223" x="2916.78" y="812.58" type="right_before_left"/>
    <node id="1305661224" x="2513.52" y="1209.19" type="right_before_left"/>
    <node id="1305661225" x="2716.27" y="963.55" type="priority"/>
    <node id="1305661227" x="2958.18" y="1000.57" type="right_before_left"/>
    <node id="1305661235" x="2851.75" y="861.33" type="right_before_left"/>
    <node id="1305661236" x="3079.29" y="907.45" type="right_before_left"/>
    <node id="1305661237" x="2973.10" y="767.31" type="right_before_left"/>
    <node id="1305661238" x="2182.08" y="1462.87" type="priority"/>
    <node id="1305661239" x="3008.82" y="740.84" type="priority" fringe="inner">
        <param key="buffer_stop" value="true"/>
    </node>
    <node id="1305661241" x="2849.64" y="1083.04" type="priority"/>
    <node id="1305661242" x="3195.37" y="818.83" type="priority"/>
    <node id="1305661244" x="2241.12" y="1535.14" type="priority"/>
    <node id="1305668206" x="2596.95" y="1263.12" type="right_before_left"/>
    <node id="1305668207" x="2429.29" y="1154.82" type="right_before_left"/>
    <node id="1305668208" x="2704.02" y="953.23" type="priority"/>
    <node id="1305668209" x="3122.39" y="1143.49" type="priority"/>
    <node id="1305668210" x="3426.03" y="1180.09" type="priority"/>
    <node id="1305668211" x="3211.30" y="912.53" type="priority"/>
    <node id="1305668212" x="3043.76" y="1042.75" type="priority"/>
    <node id="1305668213" x="2894.94" y="1154.74" type="priority"/>
    <node id="1305668214" x="3124.22" y="981.71" type="priority"/>
    <node id="1305668215" x="3338.13" y="1245.77" type="priority"/>
    <node id="1305668216" x="3584.67" y="1049.61" type="priority"/>
    <node id="1305672639" x="3848.42" y="582.71" type="right_before_left"/>
    <node id="1305672640" x="4336.66" y="255.01" type="priority"/>
    <node id="1305672641" x="3923.10" y="649.81" type="right_before_left"/>
    <node id="1305672642" x="3713.70" y="1090.58" type="priority"/>
    <node id="1305672643" x="3803.23" y="538.83" type="right_before_left"/>
    <node id="1305672644" x="4009.18" y="425.06" type="right_before_left"/>
    <node id="1305672645" x="4051.35" y="385.75" type="right_before_left"/>
    <node id="1305672646" x="4124.41" y="457.63" type="right_before_left"/>
    <node id="1305672647" x="4214.37" y="227.51" type="priority"/>
    <node id="1305672648" x="3976.65" y="391.40" type="priority"/>
    <node id="1305672651" x="3756.39" y="524.32" type="priority"/>
    <node id="1305672652" x="3833.34" y="568.16" type="right_before_left"/>
    <node id="1305672653" x="3486.91" y="819.57" type="priority"/>
    <node id="1305672658" x="3511.55" y="917.15" type="right_before_left"/>
    <node id="1305672661" x="3567.57" y="986.47" type="right_before_left"/>
    <node id="1305672662" x="3645.57" y="1043.83" type="right_before_left"/>
    <node id="1305672663" x="3966.18" y="688.52" type="right_before_left"/>
    <node id="1305672666" x="3899.26" y="628.38" type="right_before_left"/>
    <node id="1305673927" x="3391.37" y="768.49" type="right_before_left"/>
    <node id="1305674400" x="3292.17" y="1188.86" type="priority"/>
    <node id="1305674401" x="3332.30" y="1155.74" type="priority"/>
    <node id="1305674402" x="3196.32" y="1074.76" type="priority"/>
    <node id="1305674403" x="3285.10" y="1008.30" type="priority"/>
    <node id="1305714263" x="2307.89" y="161.74" type="priority"/>
    <node id="1305714265" x="2380.16" y="113.49" type="priority"/>
    <node id="1305716740" x="3726.77" y="111.58" type="priority"/>
    <node id="1305716743" x="3872.68" y="51.85" type="right_before_left"/>
    <node id="1305716744" x="3995.07" y="30.35" type="priority"/>
    <node id="1305716745" x="4068.76" y="49.60" type="priority"/>
    <node id="1305716747" x="3820.08" y="134.06" type="right_before_left"/>
    <node id="1305716748" x="3950.95" y="100.88" type="right_before_left"/>
    <node id="1305716751" x="3969.59" y="71.09" type="right_before_left"/>
    <node id="1305716752" x="3990.85" y="175.30" type="right_before_left"/>
    <node id="1305716754" x="4031.99" y="108.25" type="right_before_left"/>
    <node id="1305716755" x="3915.50" y="157.54" type="right_before_left"/>
    <node id="1305748526" x="5133.45" y="11.78" type="priority"/>
    <node id="1305748534" x="5455.30" y="9.82" type="priority"/>
    <node id="1305748549" x="5504.03" y="3.28" type="priority"/>
    <node id="1305748556" x="4995.44" y="166.74" type="priority"/>
    <node id="1305748584" x="4978.81" y="149.72" type="priority"/>
    <node id="1340029423" x="4026.24" y="3477.73" type="priority"/>
    <node id="1340029425" x="4628.94" y="3650.04" type="priority"/>
    <node id="1340029441" x="4404.71" y="5075.94" type="priority"/>
    <node id="1340029446" x="4185.77" y="3496.95" type="priority"/>
    <node id="1340029501" x="4414.47" y="5292.10" type="priority"/>
    <node id="1340069640" x="4287.79" y="2310.55" type="priority"/>
    <node id="1340096347" x="5550.66" y="882.58" type="priority"/>
    <node id="1411404534" x="1233.47" y="312.64" type="priority"/>
    <node id="1411404535" x="1222.81" y="329.56" type="priority"/>
    <node id="1411404547" x="1350.96" y="822.11" type="priority"/>
    <node id="1563481686" x="539.85" y="1205.58" type="priority"/>
    <node id="1670667900" x="6212.33" y="499.27" type="priority"/>
    <node id="1670667921" x="6262.79" y="542.34" type="priority"/>
    <node id="1670667938" x="6441.45" y="697.67" type="priority"/>
    <node id="1670719413" x="6249.77" y="531.58" type="traffic_light" tl="1670719413"/>
    <node id="1670813954" x="4721.70" y="2247.83" type="priority"/>
    <node id="1670813956" x="4778.36" y="2373.62" type="priority"/>
    <node id="1670813958" x="4788.11" y="2458.66" type="priority"/>
    <node id="1670813959" x="4788.95" y="2541.62" type="priority"/>
    <node id="1670828626" x="1796.37" y="2397.19" type="priority"/>
    <node id="1670828631" x="1834.04" y="2448.92" type="priority"/>
    <node id="1670828633" x="1890.46" y="2520.07" type="priority"/>
    <node id="1670836950" x="4745.59" y="2153.90" type="right_before_left"/>
    <node id="1670836951" x="4770.73" y="2216.59" type="right_before_left"/>
    <node id="1670836954" x="4837.78" y="2338.37" type="right_before_left"/>
    <node id="1670836960" x="4900.17" y="2385.11" type="priority"/>
    <node id="1670836972" x="4963.24" y="2426.36" type="right_before_left"/>
    <node id="1670836976" x="5001.44" y="2465.49" type="priority"/>
    <node id="1670856304" x="878.55" y="1631.70" type="priority"/>
    <node id="1675970065" x="411.50" y="5403.94" type="priority"/>
    <node id="1677385188" x="6810.58" y="2649.66" type="priority"/>
    <node id="1677385197" x="6801.40" y="1698.30" type="priority"/>
    <node id="1677424715" x="6818.69" y="2629.72" type="priority"/>
    <node id="1677529171" x="6565.67" y="1551.97" type="priority"/>
    <node id="1677529178" x="6705.73" y="1638.63" type="priority"/>
    <node id="1677529180" x="6634.31" y="1593.19" type="priority"/>
    <node id="1677529190" x="6772.15" y="1680.29" type="priority"/>
    <node id="1677529194" x="6772.14" y="1479.47" type="priority"/>
    <node id="1677529231" x="6495.72" y="1508.08" type="priority"/>
    <node id="1677529278" x="6722.66" y="1422.36" type="priority"/>
    <node id="1677529318" x="6669.05" y="1361.41" type="priority"/>
    <node id="1691229391" x="5747.30" y="2078.08" type="priority"/>
    <node id="1691229395" x="5658.51" y="1643.94" type="right_before_left"/>
    <node id="1691229399" x="4759.24" y="3028.16" type="right_before_left"/>
    <node id="1691229402" x="5691.96" y="2230.94" type="priority"/>
    <node id="1691229405" x="5476.08" y="2412.77" type="right_before_left"/>
    <node id="1691229408" x="4846.78" y="3116.05" type="right_before_left"/>
    <node id="1691229413" x="5400.66" y="2266.80" type="priority"/>
    <node id="1691229414" x="5146.57" y="2775.09" type="priority"/>
    <node id="1691229416" x="5503.74" y="2647.82" type="priority"/>
    <node id="1691229420" x="5391.33" y="2231.34" type="priority"/>
    <node id="1691229436" x="5435.39" y="2341.89" type="priority"/>
    <node id="1691229438" x="4693.54" y="2768.23" type="priority"/>
    <node id="1691229440" x="5667.06" y="1710.48" type="priority"/>
    <node id="1691229441" x="5668.80" y="1795.11" type="right_before_left"/>
    <node id="1691229444" x="5311.07" y="1702.08" type="priority" fringe="inner">
        <param key="buffer_stop" value="true"/>
    </node>
    <node id="1691229448" x="4866.41" y="2735.24" type="right_before_left"/>
    <node id="1691229455" x="5728.31" y="2127.76" type="priority"/>
    <node id="1691229457" x="5242.68" y="2513.66" type="right_before_left"/>
    <node id="1691229466" x="5819.56" y="1946.42" type="priority"/>
    <node id="1691229468" x="4966.21" y="2628.43" type="right_before_left"/>
    <node id="1691229472" x="4837.96" y="3266.12" type="priority"/>
    <node id="1691229474" x="5035.67" y="1911.44" type="priority" fringe="inner">
        <param key="buffer_stop" value="true"/>
    </node>
    <node id="1691229476" x="5644.17" y="1804.67" type="priority"/>
    <node id="1691229478" x="5678.02" y="2262.44" type="priority"/>
    <node id="1691229479" x="5670.41" y="2440.59" type="priority"/>
    <node id="1691229480" x="5819.97" y="2081.81" type="priority"/>
    <node id="1691229481" x="5687.62" y="1844.14" type="right_before_left"/>
    <node id="1691229484" x="5024.76" y="2897.60" type="right_before_left"/>
    <node id="1691229485" x="4937.63" y="2807.29" type="right_before_left"/>
    <node id="1691229486" x="4825.72" y="2321.49" type="priority"/>
    <node id="1691229487" x="5686.59" y="1785.38" type="priority"/>
    <node id="1691229495" x="4802.40" y="3232.02" type="right_before_left"/>
    <node id="1691229496" x="5502.78" y="2477.02" type="priority"/>
    <node id="1691229499" x="4692.18" y="3150.94" type="right_before_left"/>
    <node id="1691229501" x="5918.69" y="2158.12" type="priority"/>
    <node id="1691229507" x="5719.73" y="1961.96" type="priority"/>
    <node id="1691229509" x="5552.89" y="2728.63" type="priority"/>
    <node id="1691229512" x="5860.05" y="2259.26" type="priority"/>
    <node id="1691229513" x="5732.22" y="2116.67" type="priority"/>
    <node id="1691229517" x="4766.50" y="2843.66" type="right_before_left"/>
    <node id="1693854592" x="4669.52" y="3667.59" type="priority"/>
    <node id="1693854593" x="4197.91" y="3216.18" type="priority"/>
    <node id="1693854594" x="4388.16" y="3108.33" type="right_before_left"/>
    <node id="1693854595" x="4441.94" y="4273.36" type="priority"/>
    <node id="1693854597" x="5272.22" y="2663.12" type="priority"/>
    <node id="1693854598" x="4742.13" y="4052.85" type="priority"/>
    <node id="1693854599" x="4465.74" y="3244.72" type="priority"/>
    <node id="1693854600" x="4649.01" y="3999.38" type="priority"/>
    <node id="1693854603" x="4377.89" y="2531.95" type="right_before_left"/>
    <node id="1693854604" x="4797.94" y="3913.92" type="priority"/>
    <node id="1693854605" x="4329.38" y="2413.86" type="right_before_left"/>
    <node id="1693854606" x="4729.92" y="3667.46" type="right_before_left"/>