<routes>
<route id="0_0_0" edges="
441496282#0 441496282#1 441496282#2 441496282#3 441496282#4 -441496282#4 -115604050#2 -115604050#1 -115602933#2 -115602933#1 -115602933#0 819269916#1 -115604057#1
" />
<route id="0_0_1" edges="
441496282#0 441496282#1 -115604043#2 279952229#2 279952229#3 279952229#4 115604047#2 -115604047#2 279952229#5 115604057#1 -115604057#1
" />
<route id="0_0_2" edges="
441496282#0 441496282#1 441496282#2 441496282#3 441496282#4 -441496282#4 -115604050#2 279952229#4 -115604047#1 115604047#1 279952229#5 115604057#1 -115604057#1
" />
<route id="1_0_0" edges="
154551772#1 115604051#0 -115602933#5 115604043#1 279952229#2 279952229#3 279952229#4 279952229#5 279952229#6 410338471 -819269916#2 -115604057#1
" />
<route id="1_0_1" edges="
154551772#1 154551772#2 154551772#3 115604043#0 -115602933#4 -115602933#3 -115602933#2 -115604047#0 -154551772#10 154551772#10 154551772#11 115604049 -115602933#0 819269916#1 -115604057#1
" />
<route id="1_0_2" edges="
154551772#1 154551772#2 -115601279 115601279 154551772#3 154551772#4 154551772#5 154551772#6 154551772#7 115604050#0 -115602933#2 115604047#1 279952229#5 279952229#6 410338471 -819269916#2 -115604057#1
" />
<route id="0_1_0" edges="
441496282#0 441496282#1 441496282#2 -115604048#2 279952229#3 279952229#4 -279952229#4
" />
<route id="0_1_1" edges="
441496282#0 441496282#1 -115604043#2 279952229#2 279952229#3 279952229#4 -279952229#4
" />
<route id="0_1_2" edges="
441496282#0 -115604051#2 -279952229#0 279952229#0 279952229#1 279952229#2 279952229#3 279952229#4 -279952229#4
" />
<route id="1_1_0" edges="
154551772#1 115604051#0 -115602933#5 115604043#1 279952229#2 279952229#3 279952229#4 -279952229#4
" />
<route id="1_1_1" edges="
154551772#1 154551772#2 154551772#3 115604043#0 -115602933#4 115604048#1 279952229#3 279952229#4 -279952229#4
" />
<route id="1_1_2" edges="
154551772#1 154551772#2 -154551772#2 115604051#0 -115602933#5 115604043#1 279952229#2 279952229#3 279952229#4 -279952229#4
" />
</routes>
