<?xml version="1.0" encoding="UTF-8"?>

<!-- generated on 2025-02-05 21:24:49 by Eclipse SUMO netconvert Version 1.19.0
<configuration xmlns:xsi="http://www.w3.org/2001/XMLSchema-instance" xsi:noNamespaceSchemaLocation="http://sumo.dlr.de/xsd/netconvertConfiguration.xsd">

    <input>
        <sumo-net-file value="ortuzar.net.xml"/>
    </input>

    <output>
        <output-file value="ortuzar.rou.xml"/>
    </output>

    <processing>
        <geometry.min-radius.fix.railways value="false"/>
        <geometry.max-grade.fix value="false"/>
        <offset.disable-normalization value="true"/>
        <lefthand value="0"/>
    </processing>

    <junctions>
        <no-turnarounds value="true"/>
        <junctions.corner-detail value="0"/>
        <junctions.limit-turn-speed value="-1.00"/>
        <rectangular-lane-cut value="0"/>
    </junctions>

    <pedestrian>
        <walkingareas value="0"/>
    </pedestrian>

</configuration>
-->

<net version="1.16" xmlns:xsi="http://www.w3.org/2001/XMLSchema-instance" xsi:noNamespaceSchemaLocation="http://sumo.dlr.de/xsd/net_file.xsd">

    <location netOffset="1.00,0.00" convBoundary="0.00,0.00,18002.00,10000.00" origBoundary="-1.00,0.00,18001.00,10000.00" projParameter="!"/>

    <edge id=":A_0" function="internal">
        <lane id=":A_0_0" index="0" speed="14.29" length="21.49" shape="12.73,10001.60 6.90,10000.77 2.73,9998.27 0.23,9994.10 -0.60,9988.27"/>
    </edge>
    <edge id=":A_1" function="internal">
        <lane id=":A_1_0" index="0" speed="12.27" length="19.31" shape="12.73,10001.60 6.59,10000.91 3.79,9998.84 4.31,9995.40 8.16,9990.58"/>
    </edge>
    <edge id=":A_2" function="internal">
        <lane id=":A_2_0" index="0" speed="12.27" length="9.74" shape="10.42,9992.84 8.48,9995.27 8.22,9997.01 9.63,9998.05 12.73,9998.40"/>
    </edge>
    <edge id=":A_3" function="internal">
        <lane id=":A_3_0" index="0" speed="9.88" length="19.31" shape="10.42,9992.84 5.60,9996.69 2.16,9997.21 0.09,9994.41 -0.60,9988.27"/>
    </edge>
    <edge id=":A_4" function="internal">
        <lane id=":A_4_0" index="0" speed="9.88" length="9.74" shape="2.60,9988.27 2.95,9991.37 3.99,9992.78 5.73,9992.52 8.16,9990.58"/>
    </edge>
    <edge id=":A_5" function="internal">
        <lane id=":A_5_0" index="0" speed="14.29" length="16.33" shape="2.60,9988.27 3.23,9992.70 5.13,9995.87 8.30,9997.77 12.73,9998.40"/>
    </edge>
    <edge id=":A_6" function="internal">
        <lane id=":A_6_0" index="0" speed="11.90" length="10.90" shape="-3.00,9998.40 -1.95,9997.77 -1.20,9995.87 -0.75,9992.70 -0.60,9988.27"/>
    </edge>
    <edge id=":A_7" function="internal">
        <lane id=":A_7_0" index="0" speed="9.88" length="13.83" shape="-3.00,9998.40 -1.05,9997.91 1.46,9996.44 4.53,9994.00 8.16,9990.58"/>
    </edge>
    <edge id=":A_8" function="internal">
        <lane id=":A_8_0" index="0" speed="14.29" length="15.73" shape="-3.00,9998.40 12.73,9998.40"/>
    </edge>
    <edge id=":B_0" function="internal">
        <lane id=":B_0_0" index="0" speed="11.30" length="19.24" shape="-0.60,5007.20 -0.05,5003.21 1.59,4999.11 4.33,4994.90 8.16,4990.58"/>
    </edge>
    <edge id=":B_1" function="internal">
        <lane id=":B_1_0" index="0" speed="9.73" length="17.99" shape="-0.60,5007.20 0.23,5003.35 2.73,5000.60 6.90,4998.95 12.73,4998.40"/>
    </edge>
    <edge id=":B_2" function="internal">
        <lane id=":B_2_0" index="0" speed="9.73" length="12.89" shape="12.73,5001.60 8.30,5001.95 5.13,5003.00 3.23,5004.75 2.60,5007.20"/>
    </edge>
    <edge id=":B_3" function="internal">
        <lane id=":B_3_0" index="0" speed="9.14" length="19.31" shape="12.73,5001.60 6.59,5000.91 3.79,4998.84 4.31,4995.40 8.16,4990.58"/>
    </edge>
    <edge id=":B_4" function="internal">
        <lane id=":B_4_0" index="0" speed="9.14" length="9.74" shape="10.42,4992.84 8.48,4995.27 8.22,4997.01 9.63,4998.05 12.73,4998.40"/>
    </edge>
    <edge id=":B_5" function="internal">
        <lane id=":B_5_0" index="0" speed="11.30" length="16.74" shape="10.42,4992.84 7.00,4996.67 4.56,5000.34 3.09,5003.85 2.60,5007.20"/>
    </edge>
    <edge id=":B_6" function="internal">
        <lane id=":B_6_0" index="0" speed="11.30" length="13.83" shape="-3.00,4998.40 -1.05,4997.91 1.46,4996.44 4.53,4994.00 8.16,4990.58"/>
    </edge>
    <edge id=":B_7" function="internal">
        <lane id=":B_7_0" index="0" speed="9.73" length="15.73" shape="-3.00,4998.40 12.73,4998.40"/>
    </edge>
    <edge id=":B_8" function="internal">
        <lane id=":B_8_0" index="0" speed="11.90" length="11.73" shape="-3.00,4998.40 -0.55,4998.95 1.20,5000.60 2.25,5003.35 2.60,5007.20"/>
    </edge>
    <edge id=":C_0" function="internal">
        <lane id=":C_0_0" index="0" speed="12.12" length="18.93" shape="5012.73,10001.60 4993.80,10001.60"/>
    </edge>
    <edge id=":C_1" function="internal">
        <lane id=":C_1_0" index="0" speed="9.73" length="21.49" shape="5012.73,10001.60 5006.90,10000.77 5002.73,9998.27 5000.23,9994.10 4999.40,9988.27"/>
    </edge>
    <edge id=":C_2" function="internal">
        <lane id=":C_2_0" index="0" speed="10.33" length="19.31" shape="5012.73,10001.60 5006.59,10000.91 5003.79,9998.84 5004.31,9995.40 5008.16,9990.58"/>
    </edge>
    <edge id=":C_3" function="internal">
        <lane id=":C_3_0" index="0" speed="10.33" length="9.74" shape="5010.42,9992.84 5008.48,9995.27 5008.22,9997.01 5009.63,9998.05 5012.73,9998.40"/>
    </edge>
    <edge id=":C_4" function="internal">
        <lane id=":C_4_0" index="0" speed="14.88" length="19.24" shape="5010.42,9992.84 5006.10,9996.67 5001.89,9999.41 4997.79,10001.05 4993.80,10001.60"/>
    </edge>
    <edge id=":C_5" function="internal">
        <lane id=":C_5_0" index="0" speed="12.50" length="19.31" shape="5010.42,9992.84 5005.60,9996.69 5002.16,9997.21 5000.09,9994.41 4999.40,9988.27"/>
    </edge>
    <edge id=":C_6" function="internal">
        <lane id=":C_6_0" index="0" speed="12.50" length="9.74" shape="5002.60,9988.27 5002.95,9991.37 5003.99,9992.78 5005.73,9992.52 5008.16,9990.58"/>
    </edge>
    <edge id=":C_7" function="internal">
        <lane id=":C_7_0" index="0" speed="9.73" length="16.33" shape="5002.60,9988.27 5003.23,9992.70 5005.13,9995.87 5008.30,9997.77 5012.73,9998.40"/>
    </edge>
    <edge id=":C_8" function="internal">
        <lane id=":C_8_0" index="0" speed="14.29" length="17.99" shape="5002.60,9988.27 5002.05,9994.10 5000.40,9998.27 4997.65,10000.77 4993.80,10001.60"/>
    </edge>
    <edge id=":C_9" function="internal">
        <lane id=":C_9_0" index="0" speed="14.29" length="12.89" shape="4993.80,9998.40 4996.25,9997.77 4998.00,9995.87 4999.05,9992.70 4999.40,9988.27"/>
    </edge>
    <edge id=":C_10" function="internal">
        <lane id=":C_10_0" index="0" speed="14.88" length="16.74" shape="4993.80,9998.40 4997.15,9997.91 5000.66,9996.44 5004.33,9994.00 5008.16,9990.58"/>
    </edge>
    <edge id=":C_11" function="internal">
        <lane id=":C_11_0" index="0" speed="12.12" length="18.93" shape="4993.80,9998.40 5012.73,9998.40"/>
    </edge>
    <edge id=":D_0" function="internal">
        <lane id=":D_0_0" index="0" speed="9.88" length="9.74" shape="4999.40,5011.73 4999.05,5008.63 4998.01,5007.22 4996.27,5007.48 4993.84,5009.42"/>
    </edge>
    <edge id=":D_1" function="internal">
        <lane id=":D_1_0" index="0" speed="9.73" length="16.33" shape="4999.40,5011.73 4998.77,5007.30 4996.87,5004.13 4993.70,5002.23 4989.27,5001.60"/>
    </edge>
    <edge id=":D_2" function="internal">
        <lane id=":D_2_0" index="0" speed="11.90" length="23.45" shape="4999.40,5011.73 4999.40,4988.27"/>
    </edge>
    <edge id=":D_3" function="internal">
        <lane id=":D_3_0" index="0" speed="12.50" length="23.49" shape="4999.40,5011.73 4999.95,5005.76 5001.59,5000.24 5004.33,4995.18 5008.16,4990.58"/>
    </edge>
    <edge id=":D_4" function="internal">
        <lane id=":D_4_0" index="0" speed="11.90" length="21.49" shape="4999.40,5011.73 5000.23,5005.90 5002.73,5001.73 5006.90,4999.23 5012.73,4998.40"/>
    </edge>
    <edge id=":D_5" function="internal">
        <lane id=":D_5_0" index="0" speed="11.90" length="16.33" shape="5012.73,5001.60 5008.30,5002.23 5005.13,5004.13 5003.23,5007.30 5002.60,5011.73"/>
    </edge>
    <edge id=":D_6" function="internal">
        <lane id=":D_6_0" index="0" speed="9.88" length="20.98" shape="5012.73,5001.60 5007.40,5002.09 5002.47,5003.56 4997.95,5006.00 4993.84,5009.42"/>
    </edge>
    <edge id=":D_7" function="internal">
        <lane id=":D_7_0" index="0" speed="9.73" length="23.45" shape="5012.73,5001.60 4989.27,5001.60"/>
    </edge>
    <edge id=":D_8" function="internal">
        <lane id=":D_8_0" index="0" speed="11.90" length="21.49" shape="5012.73,5001.60 5006.90,5000.77 5002.73,4998.27 5000.23,4994.10 4999.40,4988.27"/>
    </edge>
    <edge id=":D_9" function="internal">
        <lane id=":D_9_0" index="0" speed="12.50" length="19.31" shape="5012.73,5001.60 5006.59,5000.91 5003.79,4998.84 5004.31,4995.40 5008.16,4990.58"/>
    </edge>
    <edge id=":D_10" function="internal">
        <lane id=":D_10_0" index="0" speed="12.50" length="9.74" shape="5010.42,4992.84 5008.48,4995.27 5008.22,4997.01 5009.63,4998.05 5012.73,4998.40"/>
    </edge>
    <edge id=":D_11" function="internal">
        <lane id=":D_11_0" index="0" speed="12.50" length="20.98" shape="5010.42,4992.84 5007.00,4996.95 5004.56,5001.47 5003.09,5006.40 5002.60,5011.73"/>
    </edge>
    <edge id=":D_12" function="internal">
        <lane id=":D_12_0" index="0" speed="10.47" length="23.45" shape="5010.42,4992.84 4993.84,5009.42"/>
    </edge>
    <edge id=":D_13" function="internal">
        <lane id=":D_13_0" index="0" speed="10.33" length="23.49" shape="5010.42,4992.84 5005.82,4996.67 5000.76,4999.41 4995.24,5001.05 4989.27,5001.60"/>
    </edge>
    <edge id=":D_14" function="internal">
        <lane id=":D_14_0" index="0" speed="12.50" length="19.31" shape="5010.42,4992.84 5005.60,4996.69 5002.16,4997.21 5000.09,4994.41 4999.40,4988.27"/>
    </edge>
    <edge id=":D_15" function="internal">
        <lane id=":D_15_0" index="0" speed="12.50" length="9.74" shape="5002.60,4988.27 5002.95,4991.37 5003.99,4992.78 5005.73,4992.52 5008.16,4990.58"/>
    </edge>
    <edge id=":D_16" function="internal">
        <lane id=":D_16_0" index="0" speed="11.90" length="16.33" shape="5002.60,4988.27 5003.23,4992.70 5005.13,4995.87 5008.30,4997.77 5012.73,4998.40"/>
    </edge>
    <edge id=":D_17" function="internal">
        <lane id=":D_17_0" index="0" speed="11.90" length="23.45" shape="5002.60,4988.27 5002.60,5011.73"/>
    </edge>
    <edge id=":D_18" function="internal">
        <lane id=":D_18_0" index="0" speed="9.88" length="23.49" shape="5002.60,4988.27 5002.05,4994.24 5000.41,4999.76 4997.67,5004.82 4993.84,5009.42"/>
    </edge>
    <edge id=":D_19" function="internal">
        <lane id=":D_19_0" index="0" speed="9.73" length="21.49" shape="5002.60,4988.27 5001.77,4994.10 4999.27,4998.27 4995.10,5000.77 4989.27,5001.60"/>
    </edge>
    <edge id=":D_20" function="internal">
        <lane id=":D_20_0" index="0" speed="9.73" length="16.33" shape="4989.27,4998.40 4993.70,4997.77 4996.87,4995.87 4998.77,4992.70 4999.40,4988.27"/>
    </edge>
    <edge id=":D_21" function="internal">
        <lane id=":D_21_0" index="0" speed="10.33" length="20.98" shape="4989.27,4998.40 4994.60,4997.91 4999.53,4996.44 5004.05,4994.00 5008.16,4990.58"/>
    </edge>
    <edge id=":D_22" function="internal">
        <lane id=":D_22_0" index="0" speed="9.73" length="23.45" shape="4989.27,4998.40 5012.73,4998.40"/>
    </edge>
    <edge id=":D_23" function="internal">
        <lane id=":D_23_0" index="0" speed="9.73" length="21.49" shape="4989.27,4998.40 4995.10,4999.23 4999.27,5001.73 5001.77,5005.90 5002.60,5011.73"/>
    </edge>
    <edge id=":D_24" function="internal">
        <lane id=":D_24_0" index="0" speed="7.71" length="19.31" shape="4989.27,4998.40 4995.41,4999.09 4998.21,5001.16 4997.69,5004.60 4993.84,5009.42"/>
    </edge>
    <edge id=":D_25" function="internal">
        <lane id=":D_25_0" index="0" speed="7.71" length="9.74" shape="4991.58,5007.16 4993.52,5004.73 4993.78,5002.99 4992.37,5001.95 4989.27,5001.60"/>
    </edge>
    <edge id=":D_26" function="internal">
        <lane id=":D_26_0" index="0" speed="9.88" length="20.98" shape="4991.58,5007.16 4995.00,5003.05 4997.44,4998.53 4998.91,4993.60 4999.40,4988.27"/>
    </edge>
    <edge id=":D_27" function="internal">
        <lane id=":D_27_0" index="0" speed="10.47" length="23.45" shape="4991.58,5007.16 5008.16,4990.58"/>
    </edge>
    <edge id=":D_28" function="internal">
        <lane id=":D_28_0" index="0" speed="9.88" length="23.49" shape="4991.58,5007.16 4996.18,5003.33 5001.24,5000.59 5006.76,4998.95 5012.73,4998.40"/>
    </edge>
    <edge id=":D_29" function="internal">
        <lane id=":D_29_0" index="0" speed="9.88" length="19.31" shape="4991.58,5007.16 4996.40,5003.31 4999.84,5002.79 5001.91,5005.59 5002.60,5011.73"/>
    </edge>
    <edge id=":E_0" function="internal">
        <lane id=":E_0_0" index="0" speed="11.30" length="9.74" shape="4999.40,11.73 4999.05,8.63 4998.01,7.22 4996.27,7.48 4993.84,9.42"/>
    </edge>
    <edge id=":E_1" function="internal">
        <lane id=":E_1_0" index="0" speed="11.90" length="17.99" shape="4999.40,11.73 4999.95,5.90 5001.60,1.73 5004.35,-0.77 5008.20,-1.60"/>
    </edge>
    <edge id=":E_2" function="internal">
        <lane id=":E_2_0" index="0" speed="11.90" length="12.89" shape="5008.20,1.60 5005.75,2.23 5004.00,4.13 5002.95,7.30 5002.60,11.73"/>
    </edge>
    <edge id=":E_3" function="internal">
        <lane id=":E_3_0" index="0" speed="11.30" length="16.74" shape="5008.20,1.60 5004.85,2.09 5001.34,3.56 4997.67,6.00 4993.84,9.42"/>
    </edge>
    <edge id=":E_4" function="internal">
        <lane id=":E_4_0" index="0" speed="11.30" length="19.24" shape="4991.58,7.16 4995.90,3.33 5000.11,0.59 5004.21,-1.05 5008.20,-1.60"/>
    </edge>
    <edge id=":E_5" function="internal">
        <lane id=":E_5_0" index="0" speed="11.30" length="19.31" shape="4991.58,7.16 4996.40,3.31 4999.84,2.79 5001.91,5.59 5002.60,11.73"/>
    </edge>
    <edge id=":F_0" function="internal">
        <lane id=":F_0_0" index="0" speed="6.99" length="14.40" shape="10008.20,10001.60 9993.80,10001.60"/>
    </edge>
    <edge id=":F_1" function="internal">
        <lane id=":F_1_0" index="0" speed="7.83" length="14.19" shape="10008.20,10001.60 10004.35,10001.05 10001.60,9999.40 9999.95,9996.65 9999.40,9992.80"/>
    </edge>
    <edge id=":F_2" function="internal">
        <lane id=":F_2_0" index="0" speed="7.83" length="9.03" shape="10002.60,9992.80 10002.95,9995.25 10004.00,9997.00 10005.75,9998.05 10008.20,9998.40"/>
    </edge>
    <edge id=":F_3" function="internal">
        <lane id=":F_3_0" index="0" speed="8.41" length="14.19" shape="10002.60,9992.80 10002.05,9996.65 10000.40,9999.40 9997.65,10001.05 9993.80,10001.60"/>
    </edge>
    <edge id=":F_4" function="internal">
        <lane id=":F_4_0" index="0" speed="8.41" length="9.03" shape="9993.80,9998.40 9996.25,9998.05 9998.00,9997.00 9999.05,9995.25 9999.40,9992.80"/>
    </edge>
    <edge id=":F_5" function="internal">
        <lane id=":F_5_0" index="0" speed="6.99" length="14.40" shape="9993.80,9998.40 10008.20,9998.40"/>
    </edge>
    <edge id=":G_0" function="internal">
        <lane id=":G_0_0" index="0" speed="11.18" length="9.74" shape="9999.40,5011.73 9999.05,5008.63 9998.01,5007.22 9996.27,5007.48 9993.84,5009.42"/>
    </edge>
    <edge id=":G_1" function="internal">
        <lane id=":G_1_0" index="0" speed="10.58" length="16.33" shape="9999.40,5011.73 9998.77,5007.30 9996.87,5004.13 9993.70,5002.23 9989.27,5001.60"/>
    </edge>
    <edge id=":G_2" function="internal">
        <lane id=":G_2_0" index="0" speed="9.26" length="23.45" shape="9999.40,5011.73 9999.40,4988.27"/>
    </edge>
    <edge id=":G_3" function="internal">
        <lane id=":G_3_0" index="0" speed="9.16" length="23.49" shape="9999.40,5011.73 9999.95,5005.76 10001.59,5000.24 10004.33,4995.18 10008.16,4990.58"/>
    </edge>
    <edge id=":G_4" function="internal">
        <lane id=":G_4_0" index="0" speed="18.52" length="21.49" shape="9999.40,5011.73 10000.23,5005.90 10002.73,5001.73 10006.90,4999.23 10012.73,4998.40"/>
    </edge>
    <edge id=":G_5" function="internal">
        <lane id=":G_5_0" index="0" speed="18.52" length="16.33" shape="10012.73,5001.60 10008.30,5002.23 10005.13,5004.13 10003.23,5007.30 10002.60,5011.73"/>
    </edge>
    <edge id=":G_6" function="internal">
        <lane id=":G_6_0" index="0" speed="20.44" length="20.98" shape="10012.73,5001.60 10007.40,5002.09 10002.47,5003.56 9997.95,5006.00 9993.84,5009.42"/>
    </edge>
    <edge id=":G_7" function="internal">
        <lane id=":G_7_0" index="0" speed="19.84" length="23.45" shape="10012.73,5001.60 9989.27,5001.60"/>
    </edge>
    <edge id=":G_8" function="internal">
        <lane id=":G_8_0" index="0" speed="18.52" length="21.49" shape="10012.73,5001.60 10006.90,5000.77 10002.73,4998.27 10000.23,4994.10 9999.40,4988.27"/>
    </edge>
    <edge id=":G_9" function="internal">
        <lane id=":G_9_0" index="0" speed="18.42" length="19.31" shape="10012.73,5001.60 10006.59,5000.91 10003.79,4998.84 10004.31,4995.40 10008.16,4990.58"/>
    </edge>
    <edge id=":G_10" function="internal">
        <lane id=":G_10_0" index="0" speed="18.42" length="9.74" shape="10010.42,4992.84 10008.48,4995.27 10008.22,4997.01 10009.63,4998.05 10012.73,4998.40"/>
    </edge>
    <edge id=":G_11" function="internal">
        <lane id=":G_11_0" index="0" speed="9.16" length="20.98" shape="10010.42,4992.84 10007.00,4996.95 10004.56,5001.47 10003.09,5006.40 10002.60,5011.73"/>
    </edge>
    <edge id=":G_12" function="internal">
        <lane id=":G_12_0" index="0" speed="11.07" length="23.45" shape="10010.42,4992.84 9993.84,5009.42"/>
    </edge>
    <edge id=":G_13" function="internal">
        <lane id=":G_13_0" index="0" speed="10.48" length="23.49" shape="10010.42,4992.84 10005.82,4996.67 10000.76,4999.41 9995.24,5001.05 9989.27,5001.60"/>
    </edge>
    <edge id=":G_14" function="internal">
        <lane id=":G_14_0" index="0" speed="9.16" length="19.31" shape="10010.42,4992.84 10005.60,4996.69 10002.16,4997.21 10000.09,4994.41 9999.40,4988.27"/>
    </edge>
    <edge id=":G_15" function="internal">
        <lane id=":G_15_0" index="0" speed="9.16" length="9.74" shape="10002.60,4988.27 10002.95,4991.37 10003.99,4992.78 10005.73,4992.52 10008.16,4990.58"/>
    </edge>
    <edge id=":G_16" function="internal">
        <lane id=":G_16_0" index="0" speed="18.52" length="16.33" shape="10002.60,4988.27 10003.23,4992.70 10005.13,4995.87 10008.30,4997.77 10012.73,4998.40"/>
    </edge>
    <edge id=":G_17" function="internal">
        <lane id=":G_17_0" index="0" speed="9.26" length="23.45" shape="10002.60,4988.27 10002.60,5011.73"/>
    </edge>
    <edge id=":G_18" function="internal">
        <lane id=":G_18_0" index="0" speed="11.18" length="23.49" shape="10002.60,4988.27 10002.05,4994.24 10000.41,4999.76 9997.67,5004.82 9993.84,5009.42"/>
    </edge>
    <edge id=":G_19" function="internal">
        <lane id=":G_19_0" index="0" speed="10.58" length="21.49" shape="10002.60,4988.27 10001.77,4994.10 9999.27,4998.27 9995.10,5000.77 9989.27,5001.60"/>
    </edge>
    <edge id=":G_20" function="internal">
        <lane id=":G_20_0" index="0" speed="10.58" length="16.33" shape="9989.27,4998.40 9993.70,4997.77 9996.87,4995.87 9998.77,4992.70 9999.40,4988.27"/>
    </edge>
    <edge id=":G_21" function="internal">
        <lane id=":G_21_0" index="0" speed="10.48" length="20.98" shape="9989.27,4998.40 9994.60,4997.91 9999.53,4996.44 10004.05,4994.00 10008.16,4990.58"/>
    </edge>
    <edge id=":G_22" function="internal">
        <lane id=":G_22_0" index="0" speed="19.84" length="23.45" shape="9989.27,4998.40 10012.73,4998.40"/>
    </edge>
    <edge id=":G_23" function="internal">
        <lane id=":G_23_0" index="0" speed="10.58" length="21.49" shape="9989.27,4998.40 9995.10,4999.23 9999.27,5001.73 10001.77,5005.90 10002.60,5011.73"/>
    </edge>
    <edge id=":G_24" function="internal">
        <lane id=":G_24_0" index="0" speed="12.50" length="19.31" shape="9989.27,4998.40 9995.41,4999.09 9998.21,5001.16 9997.69,5004.60 9993.84,5009.42"/>
    </edge>
    <edge id=":G_25" function="internal">
        <lane id=":G_25_0" index="0" speed="12.50" length="9.74" shape="9991.58,5007.16 9993.52,5004.73 9993.78,5002.99 9992.37,5001.95 9989.27,5001.60"/>
    </edge>
    <edge id=":G_26" function="internal">
        <lane id=":G_26_0" index="0" speed="11.18" length="20.98" shape="9991.58,5007.16 9995.00,5003.05 9997.44,4998.53 9998.91,4993.60 9999.40,4988.27"/>
    </edge>
    <edge id=":G_27" function="internal">
        <lane id=":G_27_0" index="0" speed="11.07" length="23.45" shape="9991.58,5007.16 10008.16,4990.58"/>
    </edge>
    <edge id=":G_28" function="internal">
        <lane id=":G_28_0" index="0" speed="20.44" length="23.49" shape="9991.58,5007.16 9996.18,5003.33 10001.24,5000.59 10006.76,4998.95 10012.73,4998.40"/>
    </edge>
    <edge id=":G_29" function="internal">
        <lane id=":G_29_0" index="0" speed="11.18" length="19.31" shape="9991.58,5007.16 9996.40,5003.31 9999.84,5002.79 10001.91,5005.59 10002.60,5011.73"/>
    </edge>
    <edge id=":H_0" function="internal">
        <lane id=":H_0_0" index="0" speed="11.18" length="9.74" shape="9999.40,11.73 9999.05,8.63 9998.01,7.22 9996.27,7.48 9993.84,9.42"/>
    </edge>
    <edge id=":H_1" function="internal">
        <lane id=":H_1_0" index="0" speed="10.58" length="16.33" shape="9999.40,11.73 9998.77,7.30 9996.87,4.13 9993.70,2.23 9989.27,1.60"/>
    </edge>
    <edge id=":H_2" function="internal">
        <lane id=":H_2_0" index="0" speed="18.52" length="17.99" shape="9999.40,11.73 9999.95,5.90 10001.60,1.73 10004.35,-0.77 10008.20,-1.60"/>
    </edge>
    <edge id=":H_3" function="internal">
        <lane id=":H_3_0" index="0" speed="18.52" length="12.89" shape="10008.20,1.60 10005.75,2.23 10004.00,4.13 10002.95,7.30 10002.60,11.73"/>
    </edge>
    <edge id=":H_4" function="internal">
        <lane id=":H_4_0" index="0" speed="20.44" length="16.74" shape="10008.20,1.60 10004.85,2.09 10001.34,3.56 9997.67,6.00 9993.84,9.42"/>
    </edge>
    <edge id=":H_5" function="internal">
        <lane id=":H_5_0" index="0" speed="19.84" length="18.93" shape="10008.20,1.60 9989.27,1.60"/>
    </edge>
    <edge id=":H_6" function="internal">
        <lane id=":H_6_0" index="0" speed="19.84" length="18.93" shape="9989.27,-1.60 10008.20,-1.60"/>
    </edge>
    <edge id=":H_7" function="internal">
        <lane id=":H_7_0" index="0" speed="10.58" length="21.49" shape="9989.27,-1.60 9995.10,-0.77 9999.27,1.73 10001.77,5.90 10002.60,11.73"/>
    </edge>
    <edge id=":H_8" function="internal">
        <lane id=":H_8_0" index="0" speed="12.50" length="19.31" shape="9989.27,-1.60 9995.41,-0.91 9998.21,1.16 9997.69,4.60 9993.84,9.42"/>
    </edge>
    <edge id=":H_9" function="internal">
        <lane id=":H_9_0" index="0" speed="12.50" length="9.74" shape="9991.58,7.16 9993.52,4.73 9993.78,2.99 9992.37,1.95 9989.27,1.60"/>
    </edge>
    <edge id=":H_10" function="internal">
        <lane id=":H_10_0" index="0" speed="20.44" length="19.24" shape="9991.58,7.16 9995.90,3.33 10000.11,0.59 10004.21,-1.05 10008.20,-1.60"/>
    </edge>
    <edge id=":H_11" function="internal">
        <lane id=":H_11_0" index="0" speed="11.18" length="19.31" shape="9991.58,7.16 9996.40,3.31 9999.84,2.79 10001.91,5.59 10002.60,11.73"/>
    </edge>
    <edge id=":I_0" function="internal">
        <lane id=":I_0_0" index="0" speed="15.71" length="14.40" shape="15008.20,10001.60 14993.80,10001.60"/>
    </edge>
    <edge id=":I_1" function="internal">
        <lane id=":I_1_0" index="0" speed="17.13" length="14.19" shape="15008.20,10001.60 15004.35,10001.05 15001.60,9999.40 14999.95,9996.65 14999.40,9992.80"/>
    </edge>
    <edge id=":I_2" function="internal">
        <lane id=":I_2_0" index="0" speed="17.13" length="9.03" shape="15002.60,9992.80 15002.95,9995.25 15004.00,9997.00 15005.75,9998.05 15008.20,9998.40"/>
    </edge>
    <edge id=":I_3" function="internal">
        <lane id=":I_3_0" index="0" speed="7.83" length="14.19" shape="15002.60,9992.80 15002.05,9996.65 15000.40,9999.40 14997.65,10001.05 14993.80,10001.60"/>
    </edge>
    <edge id=":I_4" function="internal">
        <lane id=":I_4_0" index="0" speed="7.83" length="9.03" shape="14993.80,9998.40 14996.25,9998.05 14998.00,9997.00 14999.05,9995.25 14999.40,9992.80"/>
    </edge>
    <edge id=":I_5" function="internal">
        <lane id=":I_5_0" index="0" speed="15.71" length="14.40" shape="14993.80,9998.40 15008.20,9998.40"/>
    </edge>
    <edge id=":J_0" function="internal">
        <lane id=":J_0_0" index="0" speed="18.52" length="16.35" shape="14999.40,5015.55 14999.05,5009.45 14998.00,5005.09 14996.25,5002.47 14993.80,5001.60"/>
    </edge>
    <edge id=":J_1" function="internal">
        <lane id=":J_1_0" index="0" speed="9.26" length="31.11" shape="14999.40,5015.55 14999.40,4984.45"/>
    </edge>
    <edge id=":J_2" function="internal">
        <lane id=":J_2_0" index="0" speed="8.68" length="30.93" shape="14999.40,5015.55 15000.32,5009.40 15002.55,5000.43 15005.26,4991.59 15007.63,4985.84"/>
    </edge>
    <edge id=":J_3" function="internal">
        <lane id=":J_3_0" index="0" speed="8.68" length="15.46" shape="14999.40,5015.55 15000.66,5011.65 15003.67,5009.63 15007.29,5009.81 15010.37,5012.51"/>
    </edge>
    <edge id=":J_4" function="internal">
        <lane id=":J_4_0" index="0" speed="8.68" length="11.05" shape="15007.63,5014.16 15005.43,5011.10 15003.86,5010.32 15002.91,5011.80 15002.60,5015.55"/>
    </edge>
    <edge id=":J_5" function="internal">
        <lane id=":J_5_0" index="0" speed="17.94" length="19.34" shape="15007.63,5014.16 15003.94,5008.66 15000.40,5004.74 14997.02,5002.38 14993.80,5001.60"/>
    </edge>
    <edge id=":J_6" function="internal">
        <lane id=":J_6_0" index="0" speed="8.68" length="30.93" shape="15007.63,5014.16 15005.26,5008.41 15002.55,4999.57 15000.32,4990.60 14999.40,4984.45"/>
    </edge>
    <edge id=":J_7" function="internal">
        <lane id=":J_7_0" index="0" speed="8.10" length="29.85" shape="15007.63,5014.16 15004.44,5007.08 15003.38,5000.00 15004.44,4992.92 15007.63,4985.84"/>
    </edge>
    <edge id=":J_8" function="internal">
        <lane id=":J_8_0" index="0" speed="8.10" length="26.38" shape="15010.37,4987.49 15007.56,4993.74 15006.62,5000.00 15007.56,5006.26 15010.37,5012.51"/>
    </edge>
    <edge id=":J_9" function="internal">
        <lane id=":J_9_0" index="0" speed="8.68" length="29.23" shape="15010.37,4987.49 15008.07,4992.98 15005.52,5001.25 15003.45,5009.66 15002.60,5015.55"/>
    </edge>
    <edge id=":J_10" function="internal">
        <lane id=":J_10_0" index="0" speed="17.94" length="22.61" shape="15010.37,4987.49 15006.16,4993.66 15002.00,4998.07 14997.88,5000.72 14993.80,5001.60"/>
    </edge>
    <edge id=":J_11" function="internal">
        <lane id=":J_11_0" index="0" speed="8.68" length="15.46" shape="15010.37,4987.49 15007.29,4990.19 15003.67,4990.37 15000.66,4988.35 14999.40,4984.45"/>
    </edge>
    <edge id=":J_12" function="internal">
        <lane id=":J_12_0" index="0" speed="8.68" length="11.05" shape="15002.60,4984.45 15002.91,4988.20 15003.86,4989.68 15005.43,4988.90 15007.63,4985.84"/>
    </edge>
    <edge id=":J_13" function="internal">
        <lane id=":J_13_0" index="0" speed="8.68" length="29.23" shape="15002.60,4984.45 15003.45,4990.34 15005.52,4998.75 15008.07,5007.02 15010.37,5012.51"/>
    </edge>
    <edge id=":J_14" function="internal">
        <lane id=":J_14_0" index="0" speed="9.26" length="31.11" shape="15002.60,4984.45 15002.60,5015.55"/>
    </edge>
    <edge id=":J_15" function="internal">
        <lane id=":J_15_0" index="0" speed="18.52" length="21.36" shape="15002.60,4984.45 15002.05,4991.95 15000.40,4997.31 14997.65,5000.53 14993.80,5001.60"/>
    </edge>
    <edge id=":J_16" function="internal">
        <lane id=":J_16_0" index="0" speed="18.52" length="16.35" shape="14993.80,4998.40 14996.25,4997.53 14998.00,4994.91 14999.05,4990.55 14999.40,4984.45"/>
    </edge>
    <edge id=":J_17" function="internal">
        <lane id=":J_17_0" index="0" speed="17.94" length="19.34" shape="14993.80,4998.40 14997.02,4997.62 15000.40,4995.26 15003.94,4991.34 15007.63,4985.84"/>
    </edge>
    <edge id=":J_18" function="internal">
        <lane id=":J_18_0" index="0" speed="17.94" length="22.61" shape="14993.80,4998.40 14997.88,4999.28 15002.00,5001.93 15006.16,5006.34 15010.37,5012.51"/>
    </edge>
    <edge id=":J_19" function="internal">
        <lane id=":J_19_0" index="0" speed="18.52" length="21.36" shape="14993.80,4998.40 14997.65,4999.47 15000.40,5002.69 15002.05,5008.05 15002.60,5015.55"/>
    </edge>
    <edge id=":K_0" function="internal">
        <lane id=":K_0_0" index="0" speed="9.16" length="9.74" shape="14999.40,11.73 14999.05,8.63 14998.01,7.22 14996.27,7.48 14993.84,9.42"/>
    </edge>
    <edge id=":K_1" function="internal">
        <lane id=":K_1_0" index="0" speed="18.52" length="16.33" shape="14999.40,11.73 14998.77,7.30 14996.87,4.13 14993.70,2.23 14989.27,1.60"/>
    </edge>
    <edge id=":K_2" function="internal">
        <lane id=":K_2_0" index="0" speed="17.13" length="17.99" shape="14999.40,11.73 14999.95,5.90 15001.60,1.73 15004.35,-0.77 15008.20,-1.60"/>
    </edge>
    <edge id=":K_3" function="internal">
        <lane id=":K_3_0" index="0" speed="17.13" length="12.89" shape="15008.20,1.60 15005.75,2.23 15004.00,4.13 15002.95,7.30 15002.60,11.73"/>
    </edge>
    <edge id=":K_4" function="internal">