<?xml version="1.0" encoding="UTF-8"?>

<!-- generated on 2024-06-13 08:38:47 by Eclipse SUMO netedit Version 1.19.0
<configuration xmlns:xsi="http://www.w3.org/2001/XMLSchema-instance" xsi:noNamespaceSchemaLocation="http://sumo.dlr.de/xsd/neteditConfiguration.xsd">

    <input>
        <sumo-net-file value="/Users/zoltanvarga/Documents/Milestone-One/Network_and_config/grid.net.xml"/>
    </input>

    <processing>
        <geometry.min-radius.fix.railways value="false"/>
        <geometry.max-grade.fix value="false"/>
        <offset.disable-normalization value="true"/>
        <lefthand value="0"/>
    </processing>

    <junctions>
        <no-turnarounds value="true"/>
        <junctions.corner-detail value="5"/>
        <junctions.limit-turn-speed value="5.50"/>
        <rectangular-lane-cut value="0"/>
    </junctions>

    <pedestrian>
        <walkingareas value="0"/>
    </pedestrian>

</configuration>
-->

<tlLogics version="1.16" xmlns:xsi="http://www.w3.org/2001/XMLSchema-instance" xsi:noNamespaceSchemaLocation="http://sumo.dlr.de/xsd/tllogic_file.xsd">
    <tlLogic id="A0" type="static" programID="0" offset="0">
        <phase duration="10" state="GGGGGGrrrsssrrrrrrGGGGGGrrrsssrrrrrr"/>
        <phase duration="3"  state="yyyyyyrrrsssrrrrrryyyyyyrrrsssrrrrrr"/>
        <phase duration="10" state="sssrrrGGGsssrrrrrrsssrrrGGGsssrrrrrr"/>
        <phase duration="3"  state="sssrrrGGGsssrrrrrrsssrrryyysssrrrrrr"/>
        <phase duration="10" state="GGGGGGGGGsssrrrrrrsssrrrrrrsssrrrrrr"/>
        <phase duration="3"  state="yyyyyyyyysssrrrrrrsssrrrrrrsssrrrrrr"/>
        <phase duration="10" state="sssrrrrrrsssrrrrrrGGGGGGGGGsssrrrrrr"/>
        <phase duration="3"  state="sssrrrrrrsssrrrrrryyyyyyyyysssrrrrrr"/>
        <phase duration="10" state="sssrrrrrrGGGGGGrrrsssrrrrrrGGGGGGrrr"/>
        <phase duration="3"  state="sssrrrrrryyyyyyrrrsssrrrrrryyyyyyrrr"/>
        <phase duration="10" state="sssrrrrrrsssrrrGGGsssrrrrrrsssrrrGGG"/>
        <phase duration="3"  state="sssrrrrrrsssrrryyysssrrrrrrsssrrrGGG"/>
        <phase duration="10" state="sssrrrrrrsssrrrrrrsssrrrrrrGGGGGGGGG"/>
        <phase duration="3"  state="sssrrrrrrsssrrrrrrsssrrrrrryyyyyyyyy"/>
        <phase duration="10" state="sssrrrrrrGGGGGGGGGsssrrrrrrsssrrrrrr"/>
        <phase duration="3"  state="sssrrrrrryyyyyyyyysssrrrrrrsssrrrrrr"/>
    </tlLogic>
    <tlLogic id="A1" type="static" programID="0" offset="0">
        <phase duration="10" state="GGGGGGrrrsssrrrrrrGGGGGGrrrsssrrrrrr"/>
        <phase duration="3"  state="yyyyyyrrrsssrrrrrryyyyyyrrrsssrrrrrr"/>
        <phase duration="10" state="sssrrrGGGsssrrrrrrsssrrrGGGsssrrrrrr"/>
        <phase duration="3"  state="sssrrrGGGsssrrrrrrsssrrryyysssrrrrrr"/>
        <phase duration="10" state="GGGGGGGGGsssrrrrrrsssrrrrrrsssrrrrrr"/>
        <phase duration="3"  state="yyyyyyyyysssrrrrrrsssrrrrrrsssrrrrrr"/>
        <phase duration="10" state="sssrrrrrrsssrrrrrrGGGGGGGGGsssrrrrrr"/>
        <phase duration="3"  state="sssrrrrrrsssrrrrrryyyyyyyyysssrrrrrr"/>
        <phase duration="10" state="sssrrrrrrGGGGGGrrrsssrrrrrrGGGGGGrrr"/>
        <phase duration="3"  state="sssrrrrrryyyyyyrrrsssrrrrrryyyyyyrrr"/>
        <phase duration="10" state="sssrrrrrrsssrrrGGGsssrrrrrrsssrrrGGG"/>
        <phase duration="3"  state="sssrrrrrrsssrrryyysssrrrrrrsssrrrGGG"/>
        <phase duration="10" state="sssrrrrrrsssrrrrrrsssrrrrrrGGGGGGGGG"/>
        <phase duration="3"  state="sssrrrrrrsssrrrrrrsssrrrrrryyyyyyyyy"/>
        <phase duration="10" state="sssrrrrrrGGGGGGGGGsssrrrrrrsssrrrrrr"/>
        <phase duration="3"  state="sssrrrrrryyyyyyyyysssrrrrrrsssrrrrrr"/>
    </tlLogic>
    <tlLogic id="A2" type="static" programID="0" offset="0">
        <phase duration="10" state="GGGGGGrrrsssrrrrrrGGGGGGrrrsssrrrrrr"/>
        <phase duration="3"  state="yyyyyyrrrsssrrrrrryyyyyyrrrsssrrrrrr"/>
        <phase duration="10" state="sssrrrGGGsssrrrrrrsssrrrGGGsssrrrrrr"/>
        <phase duration="3"  state="sssrrrGGGsssrrrrrrsssrrryyysssrrrrrr"/>
        <phase duration="10" state="GGGGGGGGGsssrrrrrrsssrrrrrrsssrrrrrr"/>
        <phase duration="3"  state="yyyyyyyyysssrrrrrrsssrrrrrrsssrrrrrr"/>
        <phase duration="10" state="sssrrrrrrsssrrrrrrGGGGGGGGGsssrrrrrr"/>
        <phase duration="3"  state="sssrrrrrrsssrrrrrryyyyyyyyysssrrrrrr"/>
        <phase duration="10" state="sssrrrrrrGGGGGGrrrsssrrrrrrGGGGGGrrr"/>
        <phase duration="3"  state="sssrrrrrryyyyyyrrrsssrrrrrryyyyyyrrr"/>
        <phase duration="10" state="sssrrrrrrsssrrrGGGsssrrrrrrsssrrrGGG"/>
        <phase duration="3"  state="sssrrrrrrsssrrryyysssrrrrrrsssrrrGGG"/>
        <phase duration="10" state="sssrrrrrrsssrrrrrrsssrrrrrrGGGGGGGGG"/>
        <phase duration="3"  state="sssrrrrrrsssrrrrrrsssrrrrrryyyyyyyyy"/>
        <phase duration="10" state="sssrrrrrrGGGGGGGGGsssrrrrrrsssrrrrrr"/>
        <phase duration="3"  state="sssrrrrrryyyyyyyyysssrrrrrrsssrrrrrr"/>
    </tlLogic>
    <tlLogic id="A3" type="static" programID="0" offset="0">
        <phase duration="10" state="GGGGGGrrrsssrrrrrrGGGGGGrrrsssrrrrrr"/>
        <phase duration="3"  state="yyyyyyrrrsssrrrrrryyyyyyrrrsssrrrrrr"/>
        <phase duration="10" state="sssrrrGGGsssrrrrrrsssrrrGGGsssrrrrrr"/>
        <phase duration="3"  state="sssrrrGGGsssrrrrrrsssrrryyysssrrrrrr"/>
        <phase duration="10" state="GGGGGGGGGsssrrrrrrsssrrrrrrsssrrrrrr"/>
        <phase duration="3"  state="yyyyyyyyysssrrrrrrsssrrrrrrsssrrrrrr"/>
        <phase duration="10" state="sssrrrrrrsssrrrrrrGGGGGGGGGsssrrrrrr"/>
        <phase duration="3"  state="sssrrrrrrsssrrrrrryyyyyyyyysssrrrrrr"/>
        <phase duration="10" state="sssrrrrrrGGGGGGrrrsssrrrrrrGGGGGGrrr"/>
        <phase duration="3"  state="sssrrrrrryyyyyyrrrsssrrrrrryyyyyyrrr"/>
        <phase duration="10" state="sssrrrrrrsssrrrGGGsssrrrrrrsssrrrGGG"/>
        <phase duration="3"  state="sssrrrrrrsssrrryyysssrrrrrrsssrrrGGG"/>
        <phase duration="10" state="sssrrrrrrsssrrrrrrsssrrrrrrGGGGGGGGG"/>
        <phase duration="3"  state="sssrrrrrrsssrrrrrrsssrrrrrryyyyyyyyy"/>
        <phase duration="10" state="sssrrrrrrGGGGGGGGGsssrrrrrrsssrrrrrr"/>
        <phase duration="3"  state="sssrrrrrryyyyyyyyysssrrrrrrsssrrrrrr"/>
    </tlLogic>
    <tlLogic id="B0" type="static" programID="0" offset="0">
        <phase duration="10" state="GGGGGGrrrsssrrrrrrGGGGGGrrrsssrrrrrr"/>
        <phase duration="3"  state="yyyyyyrrrsssrrrrrryyyyyyrrrsssrrrrrr"/>
        <phase duration="10" state="sssrrrGGGsssrrrrrrsssrrrGGGsssrrrrrr"/>
        <phase duration="3"  state="sssrrrGGGsssrrrrrrsssrrryyysssrrrrrr"/>
        <phase duration="10" state="GGGGGGGGGsssrrrrrrsssrrrrrrsssrrrrrr"/>
        <phase duration="3"  state="yyyyyyyyysssrrrrrrsssrrrrrrsssrrrrrr"/>
        <phase duration="10" state="sssrrrrrrsssrrrrrrGGGGGGGGGsssrrrrrr"/>
        <phase duration="3"  state="sssrrrrrrsssrrrrrryyyyyyyyysssrrrrrr"/>
        <phase duration="10" state="sssrrrrrrGGGGGGrrrsssrrrrrrGGGGGGrrr"/>
        <phase duration="3"  state="sssrrrrrryyyyyyrrrsssrrrrrryyyyyyrrr"/>
        <phase duration="10" state="sssrrrrrrsssrrrGGGsssrrrrrrsssrrrGGG"/>
        <phase duration="3"  state="sssrrrrrrsssrrryyysssrrrrrrsssrrrGGG"/>
        <phase duration="10" state="sssrrrrrrsssrrrrrrsssrrrrrrGGGGGGGGG"/>
        <phase duration="3"  state="sssrrrrrrsssrrrrrrsssrrrrrryyyyyyyyy"/>
        <phase duration="10" state="sssrrrrrrGGGGGGGGGsssrrrrrrsssrrrrrr"/>
        <phase duration="3"  state="sssrrrrrryyyyyyyyysssrrrrrrsssrrrrrr"/>
    </tlLogic>
    <tlLogic id="B1" type="static" programID="0" offset="0">
        <phase duration="10" state="GGGGGGrrrsssrrrrrrGGGGGGrrrsssrrrrrr"/>
        <phase duration="3"  state="yyyyyyrrrsssrrrrrryyyyyyrrrsssrrrrrr"/>
        <phase duration="10" state="sssrrrGGGsssrrrrrrsssrrrGGGsssrrrrrr"/>
        <phase duration="3"  state="sssrrrGGGsssrrrrrrsssrrryyysssrrrrrr"/>
        <phase duration="10" state="GGGGGGGGGsssrrrrrrsssrrrrrrsssrrrrrr"/>
        <phase duration="3"  state="yyyyyyyyysssrrrrrrsssrrrrrrsssrrrrrr"/>
        <phase duration="10" state="sssrrrrrrsssrrrrrrGGGGGGGGGsssrrrrrr"/>
        <phase duration="3"  state="sssrrrrrrsssrrrrrryyyyyyyyysssrrrrrr"/>
        <phase duration="10" state="sssrrrrrrGGGGGGrrrsssrrrrrrGGGGGGrrr"/>
        <phase duration="3"  state="sssrrrrrryyyyyyrrrsssrrrrrryyyyyyrrr"/>
        <phase duration="10" state="sssrrrrrrsssrrrGGGsssrrrrrrsssrrrGGG"/>
        <phase duration="3"  state="sssrrrrrrsssrrryyysssrrrrrrsssrrrGGG"/>
        <phase duration="10" state="sssrrrrrrsssrrrrrrsssrrrrrrGGGGGGGGG"/>
        <phase duration="3"  state="sssrrrrrrsssrrrrrrsssrrrrrryyyyyyyyy"/>
        <phase duration="10" state="sssrrrrrrGGGGGGGGGsssrrrrrrsssrrrrrr"/>
        <phase duration="3"  state="sssrrrrrryyyyyyyyysssrrrrrrsssrrrrrr"/>
    </tlLogic>
    <tlLogic id="B2" type="static" programID="0" offset="0">
        <phase duration="10" state="GGGGGGrrrsssrrrrrrGGGGGGrrrsssrrrrrr"/>
        <phase duration="3"  state="yyyyyyrrrsssrrrrrryyyyyyrrrsssrrrrrr"/>
        <phase duration="10" state="sssrrrGGGsssrrrrrrsssrrrGGGsssrrrrrr"/>
        <phase duration="3"  state="sssrrrGGGsssrrrrrrsssrrryyysssrrrrrr"/>
        <phase duration="10" state="GGGGGGGGGsssrrrrrrsssrrrrrrsssrrrrrr"/>
        <phase duration="3"  state="yyyyyyyyysssrrrrrrsssrrrrrrsssrrrrrr"/>
        <phase duration="10" state="sssrrrrrrsssrrrrrrGGGGGGGGGsssrrrrrr"/>
        <phase duration="3"  state="sssrrrrrrsssrrrrrryyyyyyyyysssrrrrrr"/>
        <phase duration="10" state="sssrrrrrrGGGGGGrrrsssrrrrrrGGGGGGrrr"/>
        <phase duration="3"  state="sssrrrrrryyyyyyrrrsssrrrrrryyyyyyrrr"/>
        <phase duration="10" state="sssrrrrrrsssrrrGGGsssrrrrrrsssrrrGGG"/>
        <phase duration="3"  state="sssrrrrrrsssrrryyysssrrrrrrsssrrrGGG"/>
        <phase duration="10" state="sssrrrrrrsssrrrrrrsssrrrrrrGGGGGGGGG"/>
        <phase duration="3"  state="sssrrrrrrsssrrrrrrsssrrrrrryyyyyyyyy"/>
        <phase duration="10" state="sssrrrrrrGGGGGGGGGsssrrrrrrsssrrrrrr"/>
        <phase duration="3"  state="sssrrrrrryyyyyyyyysssrrrrrrsssrrrrrr"/>
    </tlLogic>
    <tlLogic id="B3" type="static" programID="0" offset="0">
        <phase duration="10" state="GGGGGGrrrsssrrrrrrGGGGGGrrrsssrrrrrr"/>
        <phase duration="3"  state="yyyyyyrrrsssrrrrrryyyyyyrrrsssrrrrrr"/>
        <phase duration="10" state="sssrrrGGGsssrrrrrrsssrrrGGGsssrrrrrr"/>
        <phase duration="3"  state="sssrrrGGGsssrrrrrrsssrrryyysssrrrrrr"/>
        <phase duration="10" state="GGGGGGGGGsssrrrrrrsssrrrrrrsssrrrrrr"/>
        <phase duration="3"  state="yyyyyyyyysssrrrrrrsssrrrrrrsssrrrrrr"/>
        <phase duration="10" state="sssrrrrrrsssrrrrrrGGGGGGGGGsssrrrrrr"/>
        <phase duration="3"  state="sssrrrrrrsssrrrrrryyyyyyyyysssrrrrrr"/>
        <phase duration="10" state="sssrrrrrrGGGGGGrrrsssrrrrrrGGGGGGrrr"/>
        <phase duration="3"  state="sssrrrrrryyyyyyrrrsssrrrrrryyyyyyrrr"/>
        <phase duration="10" state="sssrrrrrrsssrrrGGGsssrrrrrrsssrrrGGG"/>
        <phase duration="3"  state="sssrrrrrrsssrrryyysssrrrrrrsssrrrGGG"/>
        <phase duration="10" state="sssrrrrrrsssrrrrrrsssrrrrrrGGGGGGGGG"/>
        <phase duration="3"  state="sssrrrrrrsssrrrrrrsssrrrrrryyyyyyyyy"/>
        <phase duration="10" state="sssrrrrrrGGGGGGGGGsssrrrrrrsssrrrrrr"/>
        <phase duration="3"  state="sssrrrrrryyyyyyyyysssrrrrrrsssrrrrrr"/>
    </tlLogic>
    <tlLogic id="C0" type="static" programID="0" offset="0">
        <phase duration="10" state="GGGGGGrrrsssrrrrrrGGGGGGrrrsssrrrrrr"/>
        <phase duration="3"  state="yyyyyyrrrsssrrrrrryyyyyyrrrsssrrrrrr"/>
        <phase duration="10" state="sssrrrGGGsssrrrrrrsssrrrGGGsssrrrrrr"/>
        <phase duration="3"  state="sssrrrGGGsssrrrrrrsssrrryyysssrrrrrr"/>
        <phase duration="10" state="GGGGGGGGGsssrrrrrrsssrrrrrrsssrrrrrr"/>
        <phase duration="3"  state="yyyyyyyyysssrrrrrrsssrrrrrrsssrrrrrr"/>
        <phase duration="10" state="sssrrrrrrsssrrrrrrGGGGGGGGGsssrrrrrr"/>
        <phase duration="3"  state="sssrrrrrrsssrrrrrryyyyyyyyysssrrrrrr"/>
        <phase duration="10" state="sssrrrrrrGGGGGGrrrsssrrrrrrGGGGGGrrr"/>
        <phase duration="3"  state="sssrrrrrryyyyyyrrrsssrrrrrryyyyyyrrr"/>
        <phase duration="10" state="sssrrrrrrsssrrrGGGsssrrrrrrsssrrrGGG"/>
        <phase duration="3"  state="sssrrrrrrsssrrryyysssrrrrrrsssrrrGGG"/>
        <phase duration="10" state="sssrrrrrrsssrrrrrrsssrrrrrrGGGGGGGGG"/>
        <phase duration="3"  state="sssrrrrrrsssrrrrrrsssrrrrrryyyyyyyyy"/>
        <phase duration="10" state="sssrrrrrrGGGGGGGGGsssrrrrrrsssrrrrrr"/>
        <phase duration="3"  state="sssrrrrrryyyyyyyyysssrrrrrrsssrrrrrr"/>
    </tlLogic>
    <tlLogic id="C1" type="static" programID="0" offset="0">
        <phase duration="10" state="GGGGGGrrrsssrrrrrrGGGGGGrrrsssrrrrrr"/>
        <phase duration="3"  state="yyyyyyrrrsssrrrrrryyyyyyrrrsssrrrrrr"/>
        <phase duration="10" state="sssrrrGGGsssrrrrrrsssrrrGGGsssrrrrrr"/>
        <phase duration="3"  state="sssrrrGGGsssrrrrrrsssrrryyysssrrrrrr"/>
        <phase duration="10" state="GGGGGGGGGsssrrrrrrsssrrrrrrsssrrrrrr"/>
        <phase duration="3"  state="yyyyyyyyysssrrrrrrsssrrrrrrsssrrrrrr"/>
        <phase duration="10" state="sssrrrrrrsssrrrrrrGGGGGGGGGsssrrrrrr"/>
        <phase duration="3"  state="sssrrrrrrsssrrrrrryyyyyyyyysssrrrrrr"/>
        <phase duration="10" state="sssrrrrrrGGGGGGrrrsssrrrrrrGGGGGGrrr"/>
        <phase duration="3"  state="sssrrrrrryyyyyyrrrsssrrrrrryyyyyyrrr"/>
        <phase duration="10" state="sssrrrrrrsssrrrGGGsssrrrrrrsssrrrGGG"/>
        <phase duration="3"  state="sssrrrrrrsssrrryyysssrrrrrrsssrrrGGG"/>
        <phase duration="10" state="sssrrrrrrsssrrrrrrsssrrrrrrGGGGGGGGG"/>
        <phase duration="3"  state="sssrrrrrrsssrrrrrrsssrrrrrryyyyyyyyy"/>
        <phase duration="10" state="sssrrrrrrGGGGGGGGGsssrrrrrrsssrrrrrr"/>
        <phase duration="3"  state="sssrrrrrryyyyyyyyysssrrrrrrsssrrrrrr"/>
    </tlLogic>
    <tlLogic id="C2" type="static" programID="0" offset="0">
        <phase duration="10" state="GGGGGGrrrsssrrrrrrGGGGGGrrrsssrrrrrr"/>
        <phase duration="3"  state="yyyyyyrrrsssrrrrrryyyyyyrrrsssrrrrrr"/>
        <phase duration="10" state="sssrrrGGGsssrrrrrrsssrrrGGGsssrrrrrr"/>
        <phase duration="3"  state="sssrrrGGGsssrrrrrrsssrrryyysssrrrrrr"/>
        <phase duration="10" state="GGGGGGGGGsssrrrrrrsssrrrrrrsssrrrrrr"/>
        <phase duration="3"  state="yyyyyyyyysssrrrrrrsssrrrrrrsssrrrrrr"/>
        <phase duration="10" state="sssrrrrrrsssrrrrrrGGGGGGGGGsssrrrrrr"/>
        <phase duration="3"  state="sssrrrrrrsssrrrrrryyyyyyyyysssrrrrrr"/>
        <phase duration="10" state="sssrrrrrrGGGGGGrrrsssrrrrrrGGGGGGrrr"/>
        <phase duration="3"  state="sssrrrrrryyyyyyrrrsssrrrrrryyyyyyrrr"/>
        <phase duration="10" state="sssrrrrrrsssrrrGGGsssrrrrrrsssrrrGGG"/>
        <phase duration="3"  state="sssrrrrrrsssrrryyysssrrrrrrsssrrrGGG"/>
        <phase duration="10" state="sssrrrrrrsssrrrrrrsssrrrrrrGGGGGGGGG"/>
        <phase duration="3"  state="sssrrrrrrsssrrrrrrsssrrrrrryyyyyyyyy"/>
        <phase duration="10" state="sssrrrrrrGGGGGGGGGsssrrrrrrsssrrrrrr"/>
        <phase duration="3"  state="sssrrrrrryyyyyyyyysssrrrrrrsssrrrrrr"/>
    </tlLogic>
    <tlLogic id="C3" type="static" programID="0" offset="0">
        <phase duration="10" state="GGGGGGrrrsssrrrrrrGGGGGGrrrsssrrrrrr"/>
        <phase duration="3"  state="yyyyyyrrrsssrrrrrryyyyyyrrrsssrrrrrr"/>
        <phase duration="10" state="sssrrrGGGsssrrrrrrsssrrrGGGsssrrrrrr"/>
        <phase duration="3"  state="sssrrrGGGsssrrrrrrsssrrryyysssrrrrrr"/>
        <phase duration="10" state="GGGGGGGGGsssrrrrrrsssrrrrrrsssrrrrrr"/>
        <phase duration="3"  state="yyyyyyyyysssrrrrrrsssrrrrrrsssrrrrrr"/>
        <phase duration="10" state="sssrrrrrrsssrrrrrrGGGGGGGGGsssrrrrrr"/>
        <phase duration="3"  state="sssrrrrrrsssrrrrrryyyyyyyyysssrrrrrr"/>
        <phase duration="10" state="sssrrrrrrGGGGGGrrrsssrrrrrrGGGGGGrrr"/>
        <phase duration="3"  state="sssrrrrrryyyyyyrrrsssrrrrrryyyyyyrrr"/>
        <phase duration="10" state="sssrrrrrrsssrrrGGGsssrrrrrrsssrrrGGG"/>
        <phase duration="3"  state="sssrrrrrrsssrrryyysssrrrrrrsssrrrGGG"/>
        <phase duration="10" state="sssrrrrrrsssrrrrrrsssrrrrrrGGGGGGGGG"/>
        <phase duration="3"  state="sssrrrrrrsssrrrrrrsssrrrrrryyyyyyyyy"/>
        <phase duration="10" state="sssrrrrrrGGGGGGGGGsssrrrrrrsssrrrrrr"/>
        <phase duration="3"  state="sssrrrrrryyyyyyyyysssrrrrrrsssrrrrrr"/>
    </tlLogic>
    <tlLogic id="D0" type="static" programID="0" offset="0">
        <phase duration="10" state="GGGGGGrrrsssrrrrrrGGGGGGrrrsssrrrrrr"/>
        <phase duration="3"  state="yyyyyyrrrsssrrrrrryyyyyyrrrsssrrrrrr"/>
        <phase duration="10" state="sssrrrGGGsssrrrrrrsssrrrGGGsssrrrrrr"/>
        <phase duration="3"  state="sssrrrGGGsssrrrrrrsssrrryyysssrrrrrr"/>
        <phase duration="10" state="GGGGGGGGGsssrrrrrrsssrrrrrrsssrrrrrr"/>
        <phase duration="3"  state="yyyyyyyyysssrrrrrrsssrrrrrrsssrrrrrr"/>
        <phase duration="10" state="sssrrrrrrsssrrrrrrGGGGGGGGGsssrrrrrr"/>
        <phase duration="3"  state="sssrrrrrrsssrrrrrryyyyyyyyysssrrrrrr"/>
        <phase duration="10" state="sssrrrrrrGGGGGGrrrsssrrrrrrGGGGGGrrr"/>
        <phase duration="3"  state="sssrrrrrryyyyyyrrrsssrrrrrryyyyyyrrr"/>
        <phase duration="10" state="sssrrrrrrsssrrrGGGsssrrrrrrsssrrrGGG"/>
        <phase duration="3"  state="sssrrrrrrsssrrryyysssrrrrrrsssrrrGGG"/>
        <phase duration="10" state="sssrrrrrrsssrrrrrrsssrrrrrrGGGGGGGGG"/>
        <phase duration="3"  state="sssrrrrrrsssrrrrrrsssrrrrrryyyyyyyyy"/>
        <phase duration="10" state="sssrrrrrrGGGGGGGGGsssrrrrrrsssrrrrrr"/>
        <phase duration="3"  state="sssrrrrrryyyyyyyyysssrrrrrrsssrrrrrr"/>
    </tlLogic>
    <tlLogic id="D1" type="static" programID="0" offset="0">
        <phase duration="10" state="GGGGGGrrrsssrrrrrrGGGGGGrrrsssrrrrrr"/>
        <phase duration="3"  state="yyyyyyrrrsssrrrrrryyyyyyrrrsssrrrrrr"/>
        <phase duration="10" state="sssrrrGGGsssrrrrrrsssrrrGGGsssrrrrrr"/>
        <phase duration="3"  state="sssrrrGGGsssrrrrrrsssrrryyysssrrrrrr"/>
        <phase duration="10" state="GGGGGGGGGsssrrrrrrsssrrrrrrsssrrrrrr"/>
        <phase duration="3"  state="yyyyyyyyysssrrrrrrsssrrrrrrsssrrrrrr"/>
        <phase duration="10" state="sssrrrrrrsssrrrrrrGGGGGGGGGsssrrrrrr"/>
        <phase duration="3"  state="sssrrrrrrsssrrrrrryyyyyyyyysssrrrrrr"/>
        <phase duration="10" state="sssrrrrrrGGGGGGrrrsssrrrrrrGGGGGGrrr"/>
        <phase duration="3"  state="sssrrrrrryyyyyyrrrsssrrrrrryyyyyyrrr"/>
        <phase duration="10" state="sssrrrrrrsssrrrGGGsssrrrrrrsssrrrGGG"/>
        <phase duration="3"  state="sssrrrrrrsssrrryyysssrrrrrrsssrrrGGG"/>
        <phase duration="10" state="sssrrrrrrsssrrrrrrsssrrrrrrGGGGGGGGG"/>
        <phase duration="3"  state="sssrrrrrrsssrrrrrrsssrrrrrryyyyyyyyy"/>
        <phase duration="10" state="sssrrrrrrGGGGGGGGGsssrrrrrrsssrrrrrr"/>
        <phase duration="3"  state="sssrrrrrryyyyyyyyysssrrrrrrsssrrrrrr"/>
    </tlLogic>
    <tlLogic id="D2" type="static" programID="0" offset="0">
        <phase duration="10" state="GGGGGGrrrsssrrrrrrGGGGGGrrrsssrrrrrr"/>
        <phase duration="3"  state="yyyyyyrrrsssrrrrrryyyyyyrrrsssrrrrrr"/>
        <phase duration="10" state="sssrrrGGGsssrrrrrrsssrrrGGGsssrrrrrr"/>
        <phase duration="3"  state="sssrrrGGGsssrrrrrrsssrrryyysssrrrrrr"/>
        <phase duration="10" state="GGGGGGGGGsssrrrrrrsssrrrrrrsssrrrrrr"/>
        <phase duration="3"  state="yyyyyyyyysssrrrrrrsssrrrrrrsssrrrrrr"/>
        <phase duration="10" state="sssrrrrrrsssrrrrrrGGGGGGGGGsssrrrrrr"/>
        <phase duration="3"  state="sssrrrrrrsssrrrrrryyyyyyyyysssrrrrrr"/>
        <phase duration="10" state="sssrrrrrrGGGGGGrrrsssrrrrrrGGGGGGrrr"/>
        <phase duration="3"  state="sssrrrrrryyyyyyrrrsssrrrrrryyyyyyrrr"/>
        <phase duration="10" state="sssrrrrrrsssrrrGGGsssrrrrrrsssrrrGGG"/>
        <phase duration="3"  state="sssrrrrrrsssrrryyysssrrrrrrsssrrrGGG"/>
        <phase duration="10" state="sssrrrrrrsssrrrrrrsssrrrrrrGGGGGGGGG"/>
        <phase duration="3"  state="sssrrrrrrsssrrrrrrsssrrrrrryyyyyyyyy"/>
        <phase duration="10" state="sssrrrrrrGGGGGGGGGsssrrrrrrsssrrrrrr"/>
        <phase duration="3"  state="sssrrrrrryyyyyyyyysssrrrrrrsssrrrrrr"/>
    </tlLogic>
    <tlLogic id="D3" type="static" programID="0" offset="0">
        <phase duration="10" state="GGGGGGrrrsssrrrrrrGGGGGGrrrsssrrrrrr"/>
        <phase duration="3"  state="yyyyyyrrrsssrrrrrryyyyyyrrrsssrrrrrr"/>
        <phase duration="10" state="sssrrrGGGsssrrrrrrsssrrrGGGsssrrrrrr"/>
        <phase duration="3"  state="sssrrrGGGsssrrrrrrsssrrryyysssrrrrrr"/>
        <phase duration="10" state="GGGGGGGGGsssrrrrrrsssrrrrrrsssrrrrrr"/>
        <phase duration="3"  state="yyyyyyyyysssrrrrrrsssrrrrrrsssrrrrrr"/>
        <phase duration="10" state="sssrrrrrrsssrrrrrrGGGGGGGGGsssrrrrrr"/>
        <phase duration="3"  state="sssrrrrrrsssrrrrrryyyyyyyyysssrrrrrr"/>
        <phase duration="10" state="sssrrrrrrGGGGGGrrrsssrrrrrrGGGGGGrrr"/>
        <phase duration="3"  state="sssrrrrrryyyyyyrrrsssrrrrrryyyyyyrrr"/>
        <phase duration="10" state="sssrrrrrrsssrrrGGGsssrrrrrrsssrrrGGG"/>
        <phase duration="3"  state="sssrrrrrrsssrrryyysssrrrrrrsssrrrGGG"/>
        <phase duration="10" state="sssrrrrrrsssrrrrrrsssrrrrrrGGGGGGGGG"/>
        <phase duration="3"  state="sssrrrrrrsssrrrrrrsssrrrrrryyyyyyyyy"/>
        <phase duration="10" state="sssrrrrrrGGGGGGGGGsssrrrrrrsssrrrrrr"/>
        <phase duration="3"  state="sssrrrrrryyyyyyyyysssrrrrrrsssrrrrrr"/>
    </tlLogic>

    <connection from="A0A1" to="A1B1" fromLane="0" toLane="0" tl="A1" linkIndex="18"/>
    <connection from="A0A1" to="A1B1" fromLane="0" toLane="1" tl="A1" linkIndex="19"/>
    <connection from="A0A1" to="A1B1" fromLane="0" toLane="2" tl="A1" linkIndex="20"/>
    <connection from="A0A1" to="A1A2" fromLane="1" toLane="0" tl="A1" linkIndex="21"/>
    <connection from="A0A1" to="A1A2" fromLane="1" toLane="1" tl="A1" linkIndex="22"/>
    <connection from="A0A1" to="A1A2" fromLane="1" toLane="2" tl="A1" linkIndex="23"/>
    <connection from="A0A1" to="A1left1" fromLane="2" toLane="0" tl="A1" linkIndex="24"/>
    <connection from="A0A1" to="A1left1" fromLane="2" toLane="1" tl="A1" linkIndex="25"/>
    <connection from="A0A1" to="A1left1" fromLane="2" toLane="2" tl="A1" linkIndex="26"/>
    <connection from="A0B0" to="B0bottom1" fromLane="0" toLane="0" tl="B0" linkIndex="27"/>
    <connection from="A0B0" to="B0bottom1" fromLane="0" toLane="1" tl="B0" linkIndex="28"/>
    <connection from="A0B0" to="B0bottom1" fromLane="0" toLane="2" tl="B0" linkIndex="29"/>
    <connection from="A0B0" to="B0C0" fromLane="1" toLane="0" tl="B0" linkIndex="30"/>
    <connection from="A0B0" to="B0C0" fromLane="1" toLane="1" tl="B0" linkIndex="31"/>
    <connection from="A0B0" to="B0C0" fromLane="1" toLane="2" tl="B0" linkIndex="32"/>
    <connection from="A0B0" to="B0B1" fromLane="2" toLane="0" tl="B0" linkIndex="33"/>
    <connection from="A0B0" to="B0B1" fromLane="2" toLane="1" tl="B0" linkIndex="34"/>
    <connection from="A0B0" to="B0B1" fromLane="2" toLane="2" tl="B0" linkIndex="35"/>
    <connection from="A1A0" to="A0left0" fromLane="0" toLane="0" tl="A0" linkIndex="0"/>
    <connection from="A1A0" to="A0left0" fromLane="0" toLane="1" tl="A0" linkIndex="1"/>
    <connection from="A1A0" to="A0left0" fromLane="0" toLane="2" tl="A0" linkIndex="2"/>
    <connection from="A1A0" to="A0bottom0" fromLane="1" toLane="0" tl="A0" linkIndex="3"/>
    <connection from="A1A0" to="A0bottom0" fromLane="1" toLane="1" tl="A0" linkIndex="4"/>
    <connection from="A1A0" to="A0bottom0" fromLane="1" toLane="2" tl="A0" linkIndex="5"/>
    <connection from="A1A0" to="A0B0" fromLane="2" toLane="0" tl="A0" linkIndex="6"/>
    <connection from="A1A0" to="A0B0" fromLane="2" toLane="1" tl="A0" linkIndex="7"/>
    <connection from="A1A0" to="A0B0" fromLane="2" toLane="2" tl="A0" linkIndex="8"/>
    <connection from="A1A2" to="A2B2" fromLane="0" toLane="0" tl="A2" linkIndex="18"/>
    <connection from="A1A2" to="A2B2" fromLane="0" toLane="1" tl="A2" linkIndex="19"/>
    <connection from="A1A2" to="A2B2" fromLane="0" toLane="2" tl="A2" linkIndex="20"/>
    <connection from="A1A2" to="A2A3" fromLane="1" toLane="0" tl="A2" linkIndex="21"/>
    <connection from="A1A2" to="A2A3" fromLane="1" toLane="1" tl="A2" linkIndex="22"/>
    <connection from="A1A2" to="A2A3" fromLane="1" toLane="2" tl="A2" linkIndex="23"/>
    <connection from="A1A2" to="A2left2" fromLane="2" toLane="0" tl="A2" linkIndex="24"/>
    <connection from="A1A2" to="A2left2" fromLane="2" toLane="1" tl="A2" linkIndex="25"/>
    <connection from="A1A2" to="A2left2" fromLane="2" toLane="2" tl="A2" linkIndex="26"/>
    <connection from="A1B1" to="B1B0" fromLane="0" toLane="0" tl="B1" linkIndex="27"/>
    <connection from="A1B1" to="B1B0" fromLane="0" toLane="1" tl="B1" linkIndex="28"/>
    <connection from="A1B1" to="B1B0" fromLane="0" toLane="2" tl="B1" linkIndex="29"/>
    <connection from="A1B1" to="B1C1" fromLane="1" toLane="0" tl="B1" linkIndex="30"/>
    <connection from="A1B1" to="B1C1" fromLane="1" toLane="1" tl="B1" linkIndex="31"/>
    <connection from="A1B1" to="B1C1" fromLane="1" toLane="2" tl="B1" linkIndex="32"/>
    <connection from="A1B1" to="B1B2" fromLane="2" toLane="0" tl="B1" linkIndex="33"/>
    <connection from="A1B1" to="B1B2" fromLane="2" toLane="1" tl="B1" linkIndex="34"/>
    <connection from="A1B1" to="B1B2" fromLane="2" toLane="2" tl="B1" linkIndex="35"/>
    <connection from="A2A1" to="A1left1" fromLane="0" toLane="0" tl="A1" linkIndex="0"/>
    <connection from="A2A1" to="A1left1" fromLane="0" toLane="1" tl="A1" linkIndex="1"/>
    <connection from="A2A1" to="A1left1" fromLane="0" toLane="2" tl="A1" linkIndex="2"/>
    <connection from="A2A1" to="A1A0" fromLane="1" toLane="0" tl="A1" linkIndex="3"/>
    <connection from="A2A1" to="A1A0" fromLane="1" toLane="1" tl="A1" linkIndex="4"/>
    <connection from="A2A1" to="A1A0" fromLane="1" toLane="2" tl="A1" linkIndex="5"/>
    <connection from="A2A1" to="A1B1" fromLane="2" toLane="0" tl="A1" linkIndex="6"/>
    <connection from="A2A1" to="A1B1" fromLane="2" toLane="1" tl="A1" linkIndex="7"/>
    <connection from="A2A1" to="A1B1" fromLane="2" toLane="2" tl="A1" linkIndex="8"/>
    <connection from="A2A3" to="A3B3" fromLane="0" toLane="0" tl="A3" linkIndex="18"/>
    <connection from="A2A3" to="A3B3" fromLane="0" toLane="1" tl="A3" linkIndex="19"/>
    <connection from="A2A3" to="A3B3" fromLane="0" toLane="2" tl="A3" linkIndex="20"/>
    <connection from="A2A3" to="A3top0" fromLane="1" toLane="0" tl="A3" linkIndex="21"/>
    <connection from="A2A3" to="A3top0" fromLane="1" toLane="1" tl="A3" linkIndex="22"/>
    <connection from="A2A3" to="A3top0" fromLane="1" toLane="2" tl="A3" linkIndex="23"/>
    <connection from="A2A3" to="A3left3" fromLane="2" toLane="0" tl="A3" linkIndex="24"/>
    <connection from="A2A3" to="A3left3" fromLane="2" toLane="1" tl="A3" linkIndex="25"/>
    <connection from="A2A3" to="A3left3" fromLane="2" toLane="2" tl="A3" linkIndex="26"/>
    <connection from="A2B2" to="B2B1" fromLane="0" toLane="0" tl="B2" linkIndex="27"/>
    <connection from="A2B2" to="B2B1" fromLane="0" toLane="1" tl="B2" linkIndex="28"/>
    <connection from="A2B2" to="B2B1" fromLane="0" toLane="2" tl="B2" linkIndex="29"/>
    <connection from="A2B2" to="B2C2" fromLane="1" toLane="0" tl="B2" linkIndex="30"/>
    <connection from="A2B2" to="B2C2" fromLane="1" toLane="1" tl="B2" linkIndex="31"/>
    <connection from="A2B2" to="B2C2" fromLane="1" toLane="2" tl="B2" linkIndex="32"/>
    <connection from="A2B2" to="B2B3" fromLane="2" toLane="0" tl="B2" linkIndex="33"/>
    <connection from="A2B2" to="B2B3" fromLane="2" toLane="1" tl="B2" linkIndex="34"/>
    <connection from="A2B2" to="B2B3" fromLane="2" toLane="2" tl="B2" linkIndex="35"/>
    <connection from="A3A2" to="A2left2" fromLane="0" toLane="0" tl="A2" linkIndex="0"/>
    <connection from="A3A2" to="A2left2" fromLane="0" toLane="1" tl="A2" linkIndex="1"/>
    <connection from="A3A2" to="A2left2" fromLane="0" toLane="2" tl="A2" linkIndex="2"/>
    <connection from="A3A2" to="A2A1" fromLane="1" toLane="0" tl="A2" linkIndex="3"/>
    <connection from="A3A2" to="A2A1" fromLane="1" toLane="1" tl="A2" linkIndex="4"/>
    <connection from="A3A2" to="A2A1" fromLane="1" toLane="2" tl="A2" linkIndex="5"/>
    <connection from="A3A2" to="A2B2" fromLane="2" toLane="0" tl="A2" linkIndex="6"/>
    <connection from="A3A2" to="A2B2" fromLane="2" toLane="1" tl="A2" linkIndex="7"/>
    <connection from="A3A2" to="A2B2" fromLane="2" toLane="2" tl="A2" linkIndex="8"/>
    <connection from="A3B3" to="B3B2" fromLane="0" toLane="0" tl="B3" linkIndex="27"/>
    <connection from="A3B3" to="B3B2" fromLane="0" toLane="1" tl="B3" linkIndex="28"/>
    <connection from="A3B3" to="B3B2" fromLane="0" toLane="2" tl="B3" linkIndex="29"/>
    <connection from="A3B3" to="B3C3" fromLane="1" toLane="0" tl="B3" linkIndex="30"/>
    <connection from="A3B3" to="B3C3" fromLane="1" toLane="1" tl="B3" linkIndex="31"/>
    <connection from="A3B3" to="B3C3" fromLane="1" toLane="2" tl="B3" linkIndex="32"/>
    <connection from="A3B3" to="B3top1" fromLane="2" toLane="0" tl="B3" linkIndex="33"/>
    <connection from="A3B3" to="B3top1" fromLane="2" toLane="1" tl="B3" linkIndex="34"/>
    <connection from="A3B3" to="B3top1" fromLane="2" toLane="2" tl="B3" linkIndex="35"/>
    <connection from="B0A0" to="A0A1" fromLane="0" toLane="0" tl="A0" linkIndex="9"/>
    <connection from="B0A0" to="A0A1" fromLane="0" toLane="1" tl="A0" linkIndex="10"/>
    <connection from="B0A0" to="A0A1" fromLane="0" toLane="2" tl="A0" linkIndex="11"/>