<routes>
<vType id="Human" color="red" guiShape="passenger/sedan"/>
<vType id="AV" color="yellow"/>
<route id="0_0_0" edges="
B3A3 A3A2 A2A1 A1A0 A0B0
" />
<route id="0_0_1" edges="
B3A3 A3A2 A2B2 B2B1 B1A1 A1A0 A0B0
" />
<route id="0_0_2" edges="
B3A3 A3A2 A2B2 B2C2 C2C1 C1B1 B1A1 A1A0 A0B0
" />
<route id="1_0_0" edges="
D0C0 C0C1 C1B1 B1A1 A1A0 A0B0
" />
<route id="1_0_1" edges="
D0C0 C0B0 B0B1 B1A1 A1A0 A0B0
" />
<route id="1_0_2" edges="
D0C0 C0C1 C1C2 C2B2 B2B1 B1A1 A1A0 A0B0
" />
<route id="0_1_0" edges="
B3A3 A3A2 A2B2 B2C2 C2D2 D2D3 D3C3
" />
<route id="0_1_1" edges="
B3A3 A3A2 A2A1 A1B1 B1C1 C1C2 C2D2 D2D3 D3C3
" />
<route id="0_1_2" edges="
B3A3 A3A2 A2A1 A1B1 B1B2 B2C2 C2D2 D2D3 D3C3
" />
<route id="1_1_0" edges="
D0C0 C0C1 C1C2 C2D2 D2D3 D3C3
" />
<route id="1_1_1" edges="
D0C0 C0C1 C1D1 D1D2 D2D3 D3C3
" />
<route id="1_1_2" edges="
D0C0 C0C1 C1B1 B1B2 B2C2 C2D2 D2D3 D3C3
" />
</routes>
