<?xml version="1.0" encoding="UTF-8"?>

<!-- generated on 2025-02-05 23:52:37 by Eclipse SUMO netconvert Version 1.19.0
<configuration xmlns:xsi="http://www.w3.org/2001/XMLSchema-instance" xsi:noNamespaceSchemaLocation="http://sumo.dlr.de/xsd/netconvertConfiguration.xsd">

    <input>
        <sumo-net-file value="square.net.xml"/>
    </input>

    <output>
        <plain-output-prefix value="square"/>
    </output>

    <processing>
        <geometry.min-radius.fix.railways value="false"/>
        <geometry.max-grade.fix value="false"/>
        <offset.disable-normalization value="true"/>
        <lefthand value="0"/>
    </processing>

    <junctions>
        <no-turnarounds value="true"/>
        <junctions.corner-detail value="5"/>
        <junctions.limit-turn-speed value="5.50"/>
        <rectangular-lane-cut value="0"/>
    </junctions>

    <pedestrian>
        <walkingareas value="0"/>
    </pedestrian>

</configuration>
-->

<nodes version="1.16" xmlns:xsi="http://www.w3.org/2001/XMLSchema-instance" xsi:noNamespaceSchemaLocation="http://sumo.dlr.de/xsd/nodes_file.xsd">
    <location netOffset="0.00,0.00" convBoundary="0.00,0.00,500.00,500.00" origBoundary="0.00,0.00,500.00,500.00" projParameter="!"/>

    <node id="A0" x="200.00" y="200.00" type="traffic_light" tl="A0"/>
    <node id="A1" x="200.00" y="300.00" type="traffic_light" tl="A1"/>
    <node id="B0" x="300.00" y="200.00" type="traffic_light" tl="B0"/>
    <node id="B1" x="300.00" y="300.00" type="traffic_light" tl="B1"/>
    <node id="bottom0" x="200.00" y="0.00" type="traffic_light" tl="bottom0" fringe="outer"/>
    <node id="bottom1" x="300.00" y="0.00" type="traffic_light" tl="bottom1" fringe="outer"/>
    <node id="left0" x="0.00" y="200.00" type="traffic_light" tl="left0" fringe="outer"/>
    <node id="left1" x="0.00" y="300.00" type="traffic_light" tl="left1" fringe="outer"/>
    <node id="right0" x="500.00" y="200.00" type="traffic_light" tl="right0" fringe="outer"/>
    <node id="right1" x="500.00" y="300.00" type="traffic_light" tl="right1" fringe="outer"/>
    <node id="top0" x="200.00" y="500.00" type="traffic_light" tl="top0" fringe="outer"/>
    <node id="top1" x="300.00" y="500.00" type="traffic_light" tl="top1" fringe="outer"/>
</nodes>
