<?xml version="1.0" encoding="UTF-8"?>

<!-- generated on 2024-06-13 08:57:27 by Eclipse SUMO netedit Version 1.19.0
<configuration xmlns:xsi="http://www.w3.org/2001/XMLSchema-instance" xsi:noNamespaceSchemaLocation="http://sumo.dlr.de/xsd/neteditConfiguration.xsd">

    <input>
        <sumo-net-file value="/Users/zoltanvarga/Documents/Milestone-One/Network_and_config/ingolstadt.net.xml"/>
    </input>

    <processing>
        <geometry.min-radius.fix.railways value="false"/>
        <geometry.max-grade.fix value="false"/>
        <offset.disable-normalization value="true"/>
        <lefthand value="0"/>
    </processing>

    <junctions>
        <no-turnarounds value="true"/>
        <junctions.corner-detail value="5"/>
        <junctions.limit-turn-speed value="5.50"/>
        <rectangular-lane-cut value="0"/>
    </junctions>

    <pedestrian>
        <walkingareas value="0"/>
    </pedestrian>

</configuration>
-->

<connections version="1.16" xmlns:xsi="http://www.w3.org/2001/XMLSchema-instance" xsi:noNamespaceSchemaLocation="http://sumo.dlr.de/xsd/connections_file.xsd">
    <connection from="-104010328" to="25145013#1" fromLane="1" toLane="1"/>
    <connection from="-104010328" to="-25145012#6" fromLane="1" toLane="1"/>
    <connection from="-104010328" to="-25145013#0" fromLane="1" toLane="1"/>

    <connection from="-10427692#1" to="-285549250#1" fromLane="1" toLane="1"/>
    <connection from="-10427692#1" to="18809672#0" fromLane="1" toLane="1"/>
    <connection from="-10427692#1" to="201963533#0" fromLane="2" toLane="1"/>

    <connection from="-10427692#2" to="-10427692#1" fromLane="1" toLane="1"/>
    <connection from="-10427692#2" to="-10427692#1" fromLane="1" toLane="2"/>

    <connection from="-10427692#3" to="-10427692#2" fromLane="1" toLane="1"/>

    <connection from="-10427692#4" to="-10427692#3" fromLane="1" toLane="1"/>

    <connection from="-10427692#5" to="-10427692#4" fromLane="1" toLane="1"/>
    <connection from="-10427692#5" to="24634516#0" fromLane="1" toLane="1"/>

    <connection from="-10427692#6" to="-10427692#5" fromLane="1" toLane="1"/>

    <connection from="-10427692#7" to="-10427692#6" fromLane="1" toLane="1"/>

    <connection from="-10427692#8" to="-10427692#7" fromLane="1" toLane="1"/>

    <connection from="-120125554" to="-24634516#2" fromLane="1" toLane="1"/>

    <connection from="-128361102#1"/>

    <connection from="-129379918#1" to="447569997#0" fromLane="1" toLane="1"/>
    <connection from="-129379918#1" to="-315358252#1" fromLane="1" toLane="1"/>
    <connection from="-129379918#1" to="-315358252#1" fromLane="2" toLane="2"/>

    <connection from="-129379920#0" to="-129379921#1" fromLane="1" toLane="1"/>
    <connection from="-129379920#0" to="-129379921#1" fromLane="2" toLane="2"/>
    <connection from="-129379920#0" to="-129379921#1" fromLane="3" toLane="3"/>
    <connection from="-129379920#0" to="40888443" fromLane="3" toLane="1"/>

    <connection from="-129379920#1" to="-129379920#0" fromLane="1" toLane="1"/>
    <connection from="-129379920#1" to="-129379920#0" fromLane="2" toLane="2"/>
    <connection from="-129379920#1" to="-129379920#0" fromLane="3" toLane="3"/>

    <connection from="-129379921#0" to="-315358250#1" fromLane="1" toLane="1"/>
    <connection from="-129379921#0" to="-315358250#1" fromLane="2" toLane="2"/>
    <connection from="-129379921#0" to="129379968" fromLane="3" toLane="1"/>

    <connection from="-129379921#1" to="-129379921#0" fromLane="1" toLane="1"/>
    <connection from="-129379921#1" to="-129379921#0" fromLane="2" toLane="2"/>
    <connection from="-129379921#1" to="-129379921#0" fromLane="3" toLane="3"/>

    <connection from="-129379922" to="25117417#0" fromLane="1" toLane="0"/>
    <connection from="-129379922" to="-315358246" fromLane="1" toLane="1"/>
    <connection from="-129379922" to="-315358246" fromLane="2" toLane="2"/>

    <connection from="-129379925" to="-129379918#1" fromLane="1" toLane="1"/>
    <connection from="-129379925" to="-129379918#1" fromLane="2" toLane="2"/>
    <connection from="-129379925" to="-40888351#6" fromLane="3" toLane="1"/>

    <connection from="-136436466" to="-315358251#1" fromLane="1" toLane="1"/>
    <connection from="-136436466" to="-315358251#1" fromLane="2" toLane="2"/>
    <connection from="-136436466" to="386687242" fromLane="3" toLane="1"/>
    <connection from="-136436466" to="386687242" fromLane="3" toLane="2"/>

    <connection from="-136436468#0"/>

    <connection from="-136436468#2" to="-136436468#0" fromLane="1" toLane="1"/>
    <connection from="-136436468#2" to="26677213#0" fromLane="1" toLane="1"/>

    <connection from="-136728347#4" to="-201963533#5" fromLane="1" toLane="1"/>
    <connection from="-136728347#4" to="-26642362#5" fromLane="1" toLane="1"/>

    <connection from="-137132992#2" to="137132997" fromLane="1" toLane="1"/>

    <connection from="-137454133#0" to="-224892361#6" fromLane="1" toLane="1"/>
    <connection from="-137454133#0" to="224892361#7" fromLane="2" toLane="2"/>

    <connection from="-137454133#1" to="-137454133#0" fromLane="1" toLane="1"/>
    <connection from="-137454133#1" to="-137454133#0" fromLane="2" toLane="2"/>

    <connection from="-137454133#5" to="-137454133#1" fromLane="1" toLane="1"/>
    <connection from="-137454133#5" to="-137454133#1" fromLane="1" toLane="2"/>

    <connection from="-138300620#6" to="176550249#3" fromLane="1" toLane="1"/>

    <connection from="-160314345#0" to="201238718#0" fromLane="1" toLane="1"/>
    <connection from="-160314345#0" to="-160314346#1" fromLane="1" toLane="1"/>
    <connection from="-160314345#0" to="-315392062#4" fromLane="1" toLane="1"/>

    <connection from="-160314345#1" to="24634411" fromLane="1" toLane="1"/>
    <connection from="-160314345#1" to="-160314345#0" fromLane="1" toLane="1"/>

    <connection from="-160314345#2" to="-24634413#0" fromLane="1" toLane="1"/>
    <connection from="-160314345#2" to="-160314345#1" fromLane="1" toLane="1"/>
    <connection from="-160314345#2" to="24634413#1" fromLane="1" toLane="1"/>

    <connection from="-160314345#3" to="-24634414#1" fromLane="1" toLane="1"/>
    <connection from="-160314345#3" to="-160314345#2" fromLane="1" toLane="1"/>
    <connection from="-160314345#3" to="24634414#2" fromLane="1" toLane="1"/>

    <connection from="-160314345#4" to="-24634417" fromLane="1" toLane="1"/>
    <connection from="-160314345#4" to="-160314345#3" fromLane="1" toLane="1"/>

    <connection from="-160314345#5" to="-315358245" fromLane="1" toLane="1"/>
    <connection from="-160314345#5" to="-160314345#4" fromLane="1" toLane="1"/>
    <connection from="-160314345#5" to="315358248#0" fromLane="1" toLane="1"/>

    <connection from="-160314346#0" to="24634505" fromLane="1" toLane="1"/>
    <connection from="-160314346#0" to="-24608845" fromLane="1" toLane="1"/>

    <connection from="-160314346#1" to="-160314346#0" fromLane="1" toLane="1"/>
    <connection from="-160314346#1" to="24634506#0" fromLane="1" toLane="1"/>

    <connection from="-160314351#0" to="-24634509#7" fromLane="1" toLane="1"/>
    <connection from="-160314351#0" to="-24634506#2" fromLane="1" toLane="1"/>

    <connection from="-160314351#1" to="-160314351#0" fromLane="1" toLane="1"/>

    <connection from="-164051413" to="-653473569#5" fromLane="1" toLane="1"/>

    <connection from="-164078530" to="379897807" fromLane="1" toLane="1"/>
    <connection from="-164078530" to="-315358244" fromLane="1" toLane="1"/>
    <connection from="-164078530" to="-315358244" fromLane="2" toLane="2"/>

    <connection from="-170018165#0" to="137133006#0" fromLane="1" toLane="1"/>
    <connection from="-170018165#0" to="137133006#0" fromLane="2" toLane="2"/>
    <connection from="-170018165#0" to="137133006#0" fromLane="2" toLane="3"/>

    <connection from="-170018165#1" to="-170018165#0" fromLane="1" toLane="1"/>
    <connection from="-170018165#1" to="-170018165#0" fromLane="2" toLane="2"/>
    <connection from="-170018165#1" to="-224892361#8" fromLane="3" toLane="1"/>

    <connection from="-170018165#2.164" to="-170018165#2.210" fromLane="1" toLane="1"/>
    <connection from="-170018165#2.164" to="-170018165#2.210" fromLane="2" toLane="2"/>
    <connection from="-170018165#2.164" to="-170018165#2.210" fromLane="2" toLane="3"/>

    <connection from="-170018165#2.210" to="-170018165#1" fromLane="1" toLane="1"/>
    <connection from="-170018165#2.210" to="-170018165#1" fromLane="2" toLane="2"/>
    <connection from="-170018165#2.210" to="-170018165#1" fromLane="3" toLane="3"/>

    <connection from="-170018165#3" to="-170018165#2.164" fromLane="1" toLane="1"/>
    <connection from="-170018165#3" to="-170018165#2.164" fromLane="1" toLane="2"/>

    <connection from="-170425366#6" to="18809672#5" fromLane="1" toLane="1"/>
    <connection from="-170425366#6" to="-18809672#4" fromLane="1" toLane="1"/>

    <connection from="-173169611#0" to="201956820" fromLane="1" toLane="1"/>
    <connection from="-173169611#0" to="201956821#0" fromLane="1" toLane="2"/>

    <connection from="-173177776#1" to="173177776#0" fromLane="0" toLane="0"/>

    <connection from="-173203413#7" to="-22724699#2" fromLane="1" toLane="1"/>
    <connection from="-173203413#7" to="22724699#3" fromLane="1" toLane="1"/>

    <connection from="-174800513" to="-201238718#1" fromLane="1" toLane="1"/>
    <connection from="-174800513" to="201201950#0" fromLane="2" toLane="2"/>

    <connection from="-18809672#1" to="201963533#0" fromLane="1" toLane="1"/>
    <connection from="-18809672#1" to="10427692#0" fromLane="1" toLane="1"/>
    <connection from="-18809672#1" to="-285549250#1" fromLane="1" toLane="1"/>

    <connection from="-18809672#4" to="22716072#0" fromLane="1" toLane="1"/>
    <connection from="-18809672#4" to="-18809672#1" fromLane="1" toLane="1"/>

    <connection from="-18809672#5" to="-18809672#4" fromLane="1" toLane="1"/>
    <connection from="-18809672#5" to="170425366#0" fromLane="1" toLane="1"/>

    <connection from="-18809672#6" to="-37681424#1" fromLane="1" toLane="1"/>
    <connection from="-18809672#6" to="-18809672#5" fromLane="1" toLane="1"/>

    <connection from="-18809672#7" to="-18809672#6" fromLane="1" toLane="1"/>
    <connection from="-18809672#7" to="-170425366#6" fromLane="1" toLane="1"/>

    <connection from="-18809673#1.275" to="25122731#0" fromLane="1" toLane="1"/>
    <connection from="-18809673#1.275" to="18813598#0" fromLane="1" toLane="1"/>
    <connection from="-18809673#1.275" to="-201963522#9" fromLane="2" toLane="1"/>

    <connection from="-18809673#6" to="-18809673#1.275" fromLane="1" toLane="1"/>
    <connection from="-18809673#6" to="-18809673#1.275" fromLane="1" toLane="2"/>

    <connection from="-18813598#1" to="-201963522#9" fromLane="1" toLane="1"/>
    <connection from="-18813598#1" to="18809673#0" fromLane="1" toLane="1"/>
    <connection from="-18813598#1" to="25122731#0" fromLane="2" toLane="1"/>

    <connection from="-18813598#6" to="-18813598#1" fromLane="1" toLane="1"/>
    <connection from="-18813598#6" to="-18813598#1" fromLane="1" toLane="2"/>

    <connection from="-18813598#7" to="25136986" fromLane="1" toLane="1"/>
    <connection from="-18813598#7" to="-18813598#6" fromLane="1" toLane="1"/>

    <connection from="-18813598#8" to="-18813598#7" fromLane="1" toLane="1"/>
    <connection from="-18813598#8" to="-25190140#2" fromLane="1" toLane="1"/>

    <connection from="-201089420#1" to="28319300#0" fromLane="1" toLane="1"/>
    <connection from="-201089420#1" to="-201201945#8" fromLane="1" toLane="1"/>
    <connection from="-201089420#1" to="40888359" fromLane="1" toLane="1"/>

    <connection from="-201089423#1" to="-32999434#1" fromLane="1" toLane="1"/>
    <connection from="-201089423#1" to="-32999434#1" fromLane="2" toLane="2"/>
    <connection from="-201089423#1" to="24693977#0" fromLane="2" toLane="1"/>

    <connection from="-201089423#2" to="-201089423#1" fromLane="1" toLane="1"/>
    <connection from="-201089423#2" to="-201089423#1" fromLane="2" toLane="2"/>
    <connection from="-201089423#2" to="22716549#0" fromLane="2" toLane="1"/>

    <connection from="-201201945#0" to="-201201945#0.78" fromLane="1" toLane="1"/>
    <connection from="-201201945#0" to="-201201945#0.78" fromLane="1" toLane="2"/>

    <connection from="-201201945#0.78" to="201201953#0" fromLane="1" toLane="1"/>
    <connection from="-201201945#0.78" to="201201953#0" fromLane="1" toLane="2"/>
    <connection from="-201201945#0.78" to="-174800513" fromLane="1" toLane="1"/>
    <connection from="-201201945#0.78" to="-174800513" fromLane="2" toLane="2"/>

    <connection from="-201201945#1" to="-201201945#0" fromLane="1" toLane="1"/>

    <connection from="-201201945#2" to="-201201945#1" fromLane="1" toLane="1"/>
    <connection from="-201201945#2" to="-136436468#2" fromLane="1" toLane="1"/>

    <connection from="-201201945#6" to="22724699#0" fromLane="1" toLane="1"/>
    <connection from="-201201945#6" to="-201201945#2" fromLane="1" toLane="1"/>

    <connection from="-201201945#7" to="-201201945#6" fromLane="1" toLane="1"/>

    <connection from="-201201945#8" to="-201201945#7" fromLane="1" toLane="1"/>
    <connection from="-201201945#8" to="-40888359" fromLane="1" toLane="1"/>

    <connection from="-201238718#0" to="-160314346#1" fromLane="1" toLane="1"/>
    <connection from="-201238718#0" to="-315392062#4" fromLane="1" toLane="1"/>
    <connection from="-201238718#0" to="160314345#0" fromLane="1" toLane="1"/>

    <connection from="-201238718#1" to="-201238724" fromLane="1" toLane="1"/>
    <connection from="-201238718#1" to="-201238718#0" fromLane="1" toLane="1"/>

    <connection from="-201238724" to="24634510#0" fromLane="1" toLane="1"/>
    <connection from="-201238724" to="-24634505" fromLane="1" toLane="1"/>

    <connection from="-201238726#0" to="-201238726#0.98" fromLane="1" toLane="1"/>
    <connection from="-201238726#0" to="-201238726#0.98" fromLane="1" toLane="2"/>

    <connection from="-201238726#0.98" to="-10427692#8" fromLane="1" toLane="1"/>
    <connection from="-201238726#0.98" to="-24634510#18" fromLane="2" toLane="1"/>

    <connection from="-201238726#1" to="-201238726#0" fromLane="1" toLane="1"/>

    <connection from="-201950247#0" to="40888351#0" fromLane="1" toLane="1"/>
    <connection from="-201950247#0" to="-201950250#2" fromLane="1" toLane="1"/>

    <connection from="-201950247#3"/>

    <connection from="-201950247#4" to="-53396619#4" fromLane="1" toLane="1"/>
    <connection from="-201950247#4" to="-201950247#3" fromLane="1" toLane="1"/>
    <connection from="-201950247#4" to="53396619#5" fromLane="1" toLane="1"/>

    <connection from="-201950247#5" to="-201950247#4" fromLane="1" toLane="1"/>

    <connection from="-201950247#6" to="-201950247#5" fromLane="1" toLane="1"/>

    <connection from="-201950247#7" to="-201950247#6" fromLane="1" toLane="1"/>

    <connection from="-201950247#8" to="-201950247#7" fromLane="1" toLane="1"/>

    <connection from="-201950250#0" to="-26677542#1" fromLane="1" toLane="1"/>
    <connection from="-201950250#0" to="-26677214#5" fromLane="1" toLane="1"/>

    <connection from="-201950250#1" to="-26677540#2" fromLane="1" toLane="1"/>
    <connection from="-201950250#1" to="-201950250#0" fromLane="1" toLane="1"/>

    <connection from="-201950250#2" to="-26677539" fromLane="1" toLane="1"/>
    <connection from="-201950250#2" to="-201950250#1" fromLane="1" toLane="1"/>

    <connection from="-201950259#3" to="-26676668" fromLane="1" toLane="1"/>
    <connection from="-201950259#3" to="-26677213#5" fromLane="1" toLane="1"/>
    <connection from="-201950259#3" to="26677214#0" fromLane="1" toLane="1"/>

    <connection from="-201950259#6" to="-201950259#3" fromLane="1" toLane="1"/>
    <connection from="-201950259#6" to="41203918#0" fromLane="1" toLane="1"/>

    <connection from="-201950263#10" to="-201950263#6" fromLane="1" toLane="1"/>
    <connection from="-201950263#10" to="26677542#0" fromLane="1" toLane="1"/>

    <connection from="-201950263#6" to="-25117391#2" fromLane="1" toLane="1"/>
    <connection from="-201950263#6" to="-201950259#6" fromLane="1" toLane="1"/>

    <connection from="-201963522#0" to="28111977#0" fromLane="1" toLane="1"/>
    <connection from="-201963522#0" to="-18809672#7" fromLane="1" toLane="1"/>
    <connection from="-201963522#0" to="-393420106#1" fromLane="1" toLane="1"/>

    <connection from="-201963522#1" to="-201963522#0" fromLane="1" toLane="1"/>
    <connection from="-201963522#1" to="32395327#0" fromLane="1" toLane="0"/>

    <connection from="-201963522#2" to="-201963522#1" fromLane="1" toLane="1"/>
    <connection from="-201963522#2" to="32395352#0" fromLane="1" toLane="0"/>

    <connection from="-201963522#3" to="-201963522#2" fromLane="1" toLane="1"/>
    <connection from="-201963522#3" to="32395361#0" fromLane="1" toLane="0"/>

    <connection from="-201963522#4" to="-201963522#3" fromLane="1" toLane="1"/>
    <connection from="-201963522#4" to="-173177776#1" fromLane="1" toLane="0"/>

    <connection from="-201963522#5" to="-37681425#7" fromLane="1" toLane="1"/>
    <connection from="-201963522#5" to="-201963522#4" fromLane="1" toLane="1"/>

    <connection from="-201963522#9" to="-201963522#5" fromLane="1" toLane="1"/>
    <connection from="-201963522#9" to="32395288#0" fromLane="1" toLane="0"/>

    <connection from="-201963533#0" to="10427692#0" fromLane="1" toLane="1"/>
    <connection from="-201963533#0" to="-285549250#1" fromLane="2" toLane="1"/>
    <connection from="-201963533#0" to="18809672#0" fromLane="3" toLane="1"/>

    <connection from="-201963533#1" to="-201963533#1.120" fromLane="1" toLane="1"/>
    <connection from="-201963533#1" to="-201963533#1.120" fromLane="1" toLane="2"/>

    <connection from="-201963533#1.120" to="-201963533#1.145" fromLane="1" toLane="1"/>
    <connection from="-201963533#1.120" to="-201963533#1.145" fromLane="1" toLane="2"/>
    <connection from="-201963533#1.120" to="-201963533#1.145" fromLane="2" toLane="3"/>

    <connection from="-201963533#1.145" to="-201963533#0" fromLane="1" toLane="1"/>
    <connection from="-201963533#1.145" to="-201963533#0" fromLane="2" toLane="2"/>
    <connection from="-201963533#1.145" to="-201963533#0" fromLane="3" toLane="3"/>

    <connection from="-201963533#4" to="24634517#1" fromLane="1" toLane="1" uncontrolled="1"/>
    <connection from="-201963533#4" to="-201963533#1" fromLane="2" toLane="1" uncontrolled="1"/>

    <connection from="-201963533#5" to="-201963533#4" fromLane="1" toLane="1"/>
    <connection from="-201963533#5" to="-201963533#4" fromLane="1" toLane="2"/>

    <connection from="-202092675.36" to="-4942389#1" fromLane="1" toLane="1"/>
    <connection from="-202092675.36" to="-4942389#1" fromLane="2" toLane="2"/>
    <connection from="-202092675.36" to="-4942389#1" fromLane="2" toLane="3"/>

    <connection from="-218647947#1" to="-24634510#6" fromLane="0" toLane="1"/>
    <connection from="-218647947#1" to="24634510#7" fromLane="0" toLane="1"/>

    <connection from="-218647954" to="-24634521#0" fromLane="1" toLane="1"/>
    <connection from="-218647954" to="24634521#1" fromLane="1" toLane="1"/>

    <connection from="-224251774#0" to="224251776#0" fromLane="1" toLane="1"/>
    <connection from="-224251774#0" to="224251776#0" fromLane="2" toLane="2"/>

    <connection from="-224251774#1" to="-224251774#0" fromLane="1" toLane="1"/>
    <connection from="-224251774#1" to="-224251774#0" fromLane="1" toLane="2"/>

    <connection from="-224251776#1" to="224251774#0" fromLane="1" toLane="1"/>

    <connection from="-224892339#3" to="-224892361#2" fromLane="1" toLane="1"/>
    <connection from="-224892339#3" to="224892361#3" fromLane="1" toLane="1"/>

    <connection from="-224892361#1" to="286646456#1" fromLane="1" toLane="1"/>
    <connection from="-224892361#1" to="-286646456#0" fromLane="2" toLane="1"/>

    <connection from="-224892361#2" to="-224892361#1" fromLane="1" toLane="1"/>
    <connection from="-224892361#2" to="-224892361#1" fromLane="1" toLane="2"/>

    <connection from="-224892361#6" to="224892339#0" fromLane="1" toLane="1"/>
    <connection from="-224892361#6" to="-224892361#2" fromLane="1" toLane="1"/>

    <connection from="-224892361#8" to="137454133#0" fromLane="1" toLane="1"/>
    <connection from="-224892361#8" to="-224892361#6" fromLane="1" toLane="1"/>

    <connection from="-22690205#1" to="-233675413#3" fromLane="1" toLane="1"/>
    <connection from="-22690205#1" to="233675413#4" fromLane="1" toLane="1"/>

    <connection from="-22690205#2" to="23436553#0" fromLane="1" toLane="1"/>
    <connection from="-22690205#2" to="-22690205#1" fromLane="1" toLane="1"/>

    <connection from="-22690205#3" to="-22690205#2" fromLane="1" toLane="1"/>
    <connection from="-22690205#3" to="22690206#0" fromLane="1" toLane="1"/>

    <connection from="-22690206#0" to="22690205#3" fromLane="1" toLane="1"/>
    <connection from="-22690206#0" to="-22690205#2" fromLane="1" toLane="1"/>

    <connection from="-22690206#1" to="-22879845" fromLane="1" toLane="1"/>
    <connection from="-22690206#1" to="-22690206#0" fromLane="1" toLane="1"/>

    <connection from="-22690206#2" to="-22690206#1" fromLane="1" toLane="1"/>

    <connection from="-22716069#0" to="233675413#2" fromLane="1" toLane="1"/>
    <connection from="-22716069#0" to="-233675413#1" fromLane="1" toLane="1"/>

    <connection from="-22716069#1" to="-22716069#0" fromLane="1" toLane="1"/>
    <connection from="-22716069#1" to="25145014#0" fromLane="1" toLane="1"/>

    <connection from="-22716069#2" to="25145012#5" fromLane="1" toLane="1"/>
    <connection from="-22716069#2" to="-22716069#1" fromLane="1" toLane="1"/>
    <connection from="-22716069#2" to="-25145012#4" fromLane="1" toLane="1"/>

    <connection from="-22716072#3" to="-18809672#1" fromLane="1" toLane="1"/>
    <connection from="-22716072#3" to="18809672#2" fromLane="1" toLane="1"/>

    <connection from="-22716072#5" to="-22716072#3" fromLane="1" toLane="1"/>
    <connection from="-22716072#5" to="22716073" fromLane="1" toLane="1"/>

    <connection from="-22716073" to="22716072#4" fromLane="1" toLane="1"/>
    <connection from="-22716073" to="-22716072#3" fromLane="1" toLane="1"/>

    <connection from="-22716549#6" to="201089423#2" fromLane="1" toLane="1"/>
    <connection from="-22716549#6" to="201089423#2" fromLane="1" toLane="2"/>
    <connection from="-22716549#6" to="-201089423#1" fromLane="1" toLane="1"/>
    <connection from="-22716549#6" to="-201089423#1" fromLane="1" toLane="2"/>

    <connection from="-22724699#1" to="-201201945#2" fromLane="1" toLane="1"/>
    <connection from="-22724699#1" to="201201945#3" fromLane="1" toLane="1"/>

    <connection from="-22724699#11" to="40888356#0" fromLane="1" toLane="1"/>
    <connection from="-22724699#11" to="-22724699#6" fromLane="1" toLane="1"/>

    <connection from="-22724699#2" to="-22724699#1" fromLane="1" toLane="1"/>

    <connection from="-22724699#6" to="173203413#0" fromLane="1" toLane="1"/>
    <connection from="-22724699#6" to="-22724699#2" fromLane="1" toLane="1"/>

    <connection from="-22879845" to="-23436553#4" fromLane="1" toLane="1"/>

    <connection from="-233675413#0" to="-136728347#4" fromLane="1" toLane="1"/>
    <connection from="-233675413#0" to="-25187891" fromLane="2" toLane="1"/>

    <connection from="-233675413#1" to="-233675413#0" fromLane="1" toLane="1"/>
    <connection from="-233675413#1" to="-233675413#0" fromLane="1" toLane="2"/>

    <connection from="-233675413#2" to="-233675413#1" fromLane="1" toLane="1"/>
    <connection from="-233675413#2" to="22716069#0" fromLane="2" toLane="1"/>

    <connection from="-233675413#3" to="-233675413#2" fromLane="1" toLane="1"/>
    <connection from="-233675413#3" to="-233675413#2" fromLane="1" toLane="2"/>

    <connection from="-233675413#6" to="22690205#0" fromLane="1" toLane="1"/>
    <connection from="-233675413#6" to="-233675413#3" fromLane="1" toLane="1"/>

    <connection from="-233675413#8" to="-233675413#6" fromLane="1" toLane="1"/>
    <connection from="-233675413#8" to="-25145011#2" fromLane="1" toLane="1"/>

    <connection from="-23436553#1" to="-22690205#1" fromLane="1" toLane="1"/>
    <connection from="-23436553#1" to="22690205#2" fromLane="1" toLane="1"/>

    <connection from="-23436553#2" to="23525483#0" fromLane="1" toLane="1"/>
    <connection from="-23436553#2" to="-23436553#1" fromLane="1" toLane="1"/>

    <connection from="-23436553#3" to="-218647947#1" fromLane="1" toLane="0"/>
    <connection from="-23436553#3" to="-23436553#2" fromLane="1" toLane="1"/>

    <connection from="-23436553#4" to="-23436553#3" fromLane="1" toLane="1"/>
    <connection from="-23436553#4" to="-22690205#3" fromLane="1" toLane="1"/>

    <connection from="-23525483#0" to="-23436553#1" fromLane="1" toLane="1"/>
    <connection from="-23525483#0" to="23436553#2" fromLane="1" toLane="1"/>

    <connection from="-23525483#5" to="-23525483#0" fromLane="1" toLane="1"/>
    <connection from="-23525483#5" to="-23525483#7" fromLane="1" toLane="1"/>

    <connection from="-23525483#6" to="-23525483#5" fromLane="1" toLane="1"/>

    <connection from="-23525483#7" to="-23525483#6" fromLane="1" toLane="1"/>

    <connection from="-24608844"/>

    <connection from="-24608845" to="-160314351#1" fromLane="1" toLane="1"/>

    <connection from="-24608846#0" to="-160314345#5" fromLane="1" toLane="1"/>

    <connection from="-24608846#1" to="-24608846#0" fromLane="1" toLane="1"/>

    <connection from="-24634411" to="-160314345#0" fromLane="1" toLane="1"/>
    <connection from="-24634411" to="160314345#1" fromLane="1" toLane="1"/>

    <connection from="-24634413#0" to="201201950#3" fromLane="1" toLane="1"/>

    <connection from="-24634413#1" to="160314345#2" fromLane="1" toLane="1"/>
    <connection from="-24634413#1" to="-24634413#0" fromLane="1" toLane="1"/>
    <connection from="-24634413#1" to="-160314345#1" fromLane="1" toLane="1"/>

    <connection from="-24634413#2" to="-24634413#1" fromLane="1" toLane="1"/>

    <connection from="-24634414#0" to="-40888350" fromLane="1" toLane="1"/>
    <connection from="-24634414#0" to="23166741#2" fromLane="1" toLane="2"/>

    <connection from="-24634414#1" to="201201950#4" fromLane="1" toLane="1"/>
    <connection from="-24634414#1" to="-24634414#0" fromLane="1" toLane="1"/>

    <connection from="-24634414#2" to="160314345#3" fromLane="1" toLane="1"/>
    <connection from="-24634414#2" to="-24634414#1" fromLane="1" toLane="1"/>
    <connection from="-24634414#2" to="-160314345#2" fromLane="1" toLane="1"/>

    <connection from="-24634414#3" to="24634416" fromLane="1" toLane="1"/>
    <connection from="-24634414#3" to="-24634414#2" fromLane="1" toLane="1"/>

    <connection from="-24634414#4" to="24634415" fromLane="1" toLane="1"/>
    <connection from="-24634414#4" to="-24634414#3" fromLane="1" toLane="1"/>

    <connection from="-24634414#5" to="-24634414#4" fromLane="1" toLane="1"/>
    <connection from="-24634414#5" to="-37386279" fromLane="1" toLane="1"/>

    <connection from="-24634415" to="-24634414#3" fromLane="1" toLane="1"/>
    <connection from="-24634415" to="24634414#4" fromLane="1" toLane="1"/>

    <connection from="-24634417" to="386687239#1" fromLane="1" toLane="1"/>

    <connection from="-24634505" to="-24608845" fromLane="1" toLane="1"/>
    <connection from="-24634505" to="160314346#0" fromLane="1" toLane="1"/>

    <connection from="-24634506#0" to="160314346#1" fromLane="1" toLane="1"/>
    <connection from="-24634506#0" to="-160314346#0" fromLane="1" toLane="1"/>

    <connection from="-24634506#1" to="-24634506#0" fromLane="1" toLane="1"/>

    <connection from="-24634506#2" to="-31395281" fromLane="1" toLane="1"/>
    <connection from="-24634506#2" to="-24634506#1" fromLane="1" toLane="1"/>

    <connection from="-24634507" to="24634509#1" fromLane="1" toLane="1"/>
    <connection from="-24634507" to="-24634509#0" fromLane="1" toLane="1"/>

    <connection from="-24634508" to="-24634507" fromLane="1" toLane="1"/>

    <connection from="-24634509#0" to="-22716549#6" fromLane="1" toLane="1"/>

    <connection from="-24634509#7" to="-24634509#0" fromLane="1" toLane="1"/>
    <connection from="-24634509#7" to="24634507" fromLane="1" toLane="1"/>

    <connection from="-24634510#0" to="-24634505" fromLane="1" toLane="1"/>
    <connection from="-24634510#0" to="201238724" fromLane="1" toLane="1"/>

    <connection from="-24634510#15" to="-24634510#8" fromLane="1" toLane="1"/>
    <connection from="-24634510#15" to="24634513#0" fromLane="1" toLane="0"/>

    <connection from="-24634510#18" to="-24634510#15" fromLane="1" toLane="1"/>
    <connection from="-24634510#18" to="24634514#0" fromLane="1" toLane="1"/>

    <connection from="-24634510#5" to="-24634510#0" fromLane="1" toLane="1"/>
    <connection from="-24634510#5" to="24634511" fromLane="1" toLane="1"/>

    <connection from="-24634510#6" to="-24634510#5" fromLane="1" toLane="1"/>
    <connection from="-24634510#6" to="-138300620#6" fromLane="1" toLane="1"/>

    <connection from="-24634510#8" to="204588664#0" fromLane="1" toLane="0"/>
    <connection from="-24634510#8" to="-24634510#6" fromLane="1" toLane="1"/>

    <connection from="-24634511" to="24634510#1" fromLane="1" toLane="1"/>
    <connection from="-24634511" to="-24634510#0" fromLane="1" toLane="1"/>

    <connection from="-24634513#5" to="24634510#9" fromLane="0" toLane="1"/>
    <connection from="-24634513#5" to="-24634510#8" fromLane="0" toLane="1"/>

    <connection from="-24634513#6" to="-24634513#5" fromLane="0" toLane="0"/>

    <connection from="-24634514#1" to="24634510#16" fromLane="1" toLane="1"/>
    <connection from="-24634514#1" to="-24634510#15" fromLane="1" toLane="1"/>

    <connection from="-24634516#0" to="10427692#5" fromLane="1" toLane="1"/>
    <connection from="-24634516#0" to="-10427692#4" fromLane="1" toLane="1"/>
