<routes>
<vType id="Human" color="red" guiShape="passenger/sedan"/>
<vType id="AV" color="yellow"/>
<route id="0_0_0" edges="
315358244 379897807 137685155#0 129379968 -201950263#10 -201950263#6 -201950259#6 -201950259#3 -26677213#5 136436468#1 -201201945#1 -201201945#0 -201201945#0.78 -174800513 -201238718#1 -201238724 24634510#0 24634510#1 24634510#6 204588664#0 -23436553#2 -23436553#1 -22690205#1 233675413#4 -25145011#2 -25145011#0 -653473569#2 -653473569#1 -25149001#5 -25149001#4
" />
<route id="0_0_1" edges="
315358244 379897807 137685155#0 129379968 -201950263#10 -201950263#6 -201950259#6 -201950259#3 -26677213#5 136436468#1 -201201945#1 -201201945#0 -201201945#0.78 -174800513 -201238718#1 -201238724 24634510#0 24634510#1 24634510#6 204588664#0 -23436553#2 -23436553#1 -22690205#1 233675413#4 -25145011#2 -25145012#5 22716069#2 -653473569#1 -25149001#5 -25149001#4
" />
<route id="0_0_2" edges="
315358244 379897807 137685155#0 129379968 -201950263#10 26677542#0 26677542#1 -26677214#5 26677216#0 26677216#1 26677216#2 26677216#3 23166741#5 -174800513 -201238718#1 -201238724 24634510#0 24634510#1 24634510#6 204588664#0 -23436553#2 -23436553#1 -22690205#1 233675413#4 -25145011#2 -25145011#0 -653473569#2 -653473569#1 -25149001#5 -25149001#4
" />
<route id="0_0_3" edges="
315358244 379897807 137685155#0 129379968 -201950263#10 26677542#0 26677542#1 -26677214#5 26677216#0 26677216#1 26677216#2 26677216#3 23166741#5 -174800513 -201238718#1 -201238724 24634510#0 24634510#1 24634510#6 204588664#0 -23436553#2 -23436553#1 -22690205#1 233675413#4 -25145011#2 -25145012#5 22716069#2 -653473569#1 -25149001#5 -25149001#4
" />
<route id="0_2_0" edges="
315358244 379897807 137685155#0 129379968 -201950263#10 26677542#0 26677542#1 -26677214#5 26677216#0 26677216#1 26677216#2 26677216#3 23166741#5 -174800513 -201238718#1 -201238718#0 -315392062#4 -24693977#1 -24693977#0 -32999434#1 32999110#0 402600768#0 402600768#1 51857517#0 51857517#0.33 51857517#1 51857518#1 32978638#0
" />
<route id="0_2_1" edges="
315358244 379897807 137685155#0 129379968 -201950263#10 -201950263#6 -201950259#6 -201950259#3 -26677213#5 136436468#1 -201201945#1 -201201945#0 -201201945#0.78 -174800513 -201238718#1 -201238718#0 -315392062#4 -24693977#1 -24693977#0 -32999434#1 32999110#0 402600768#0 402600768#1 51857517#0 51857517#0.33 51857517#1 51857518#1 32978638#0
" />
<route id="0_2_2" edges="
315358244 379897807 137685155#0 129379968 -201950263#10 -201950263#6 -201950259#6 -201950259#3 -26677213#5 136436468#1 -201201945#1 -201201945#0 -201201945#0.78 -174800513 201201950#0 -24634411 160314345#1 160314345#2 24634414#2 24634416 315358253#1 315358253#2 402600768#0 402600768#1 51857517#0 51857517#0.33 51857517#1 51857518#1 32978638#0
" />
<route id="0_2_3" edges="
315358244 379897807 137685155#0 129379968 -201950263#10 -201950263#6 -201950259#6 -201950259#3 -26677213#5 136436468#1 -201201945#1 -201201945#0 -201201945#0.78 -174800513 201201950#0 -24634411 -160314345#0 -315392062#4 -24693977#1 -24693977#0 -32999434#1 32999110#0 402600768#0 402600768#1 51857517#0 51857517#0.33 51857517#1 51857518#1 32978638#0
" />
<route id="0_3_0" edges="
315358244 379897807 137685155#0 129379921#0 129379921#1 129379920#0 129379920#1 315358246 129379922 315358252#0 129379918#0 129379925 315358242#0 315358242#1 315358242#2 315358242#3 315358251#1 136436466 386687235
" />
<route id="0_3_1" edges="
315358244 379897807 137685155#0 129379968 -201950263#10 26677542#0 -26677417#1 -26677417#0 26677416#2 26677416#3 26677416#4 40888351#3 129379925 315358242#0 315358242#1 315358242#2 315358242#3 315358251#1 136436466 386687235
" />
<route id="0_3_2" edges="
315358244 379897807 137685155#0 129379968 -201950263#10 26677542#0 26677542#1 201950250#0 201950250#1 -26677539 26677416#4 40888351#3 129379925 315358242#0 315358242#1 315358242#2 315358242#3 315358251#1 136436466 386687235
" />
<route id="0_3_3" edges="
315358244 164078530 379897806 315358250#0 315358250#1 129379921#0 129379921#1 129379920#0 129379920#1 315358246 129379922 315358252#0 129379918#0 129379925 315358242#0 315358242#1 315358242#2 315358242#3 315358251#1 136436466 386687235
" />
<route id="0_4_0" edges="
315358244 379897807 137685155#0 129379968 -201950263#10 -201950263#6 -25117391#2 -25117391#1 315358257#0 315358257#0.43 -612075153#1 -612075153#0 399835085#0 399835085#1
" />
<route id="0_4_1" edges="
315358244 164078530 379897806 315358250#0 315358250#1 129379968 -201950263#10 -201950263#6 -25117391#2 -25117391#1 315358257#0 315358257#0.43 -612075153#1 -612075153#0 399835085#0 399835085#1
" />
<route id="0_4_2" edges="
315358244 379897807 137685155#0 129379968 -201950263#10 -201950263#6 -25117391#2 -25117391#1 -201089420#1 -201201945#8 -40888359 201089420#0 315358257#0 315358257#0.43 -612075153#1 -612075153#0 399835085#0 399835085#1
" />
<route id="0_4_3" edges="
315358244 379897807 137685155#0 129379968 -201950263#10 -201950263#6 -25117391#2 -25117391#1 315358257#0 315358257#0.43 -315358255#4 -286646456#2 224892361#1 224892361#2 224892339#0 315358255#0 -612075153#1 -612075153#0 399835085#0 399835085#1
" />
<route id="0_5_0" edges="
315358244 379897807 137685155#0 129379968 -201950263#10 26677542#0 26677542#1 -26677214#5 26677216#0 26677216#1 26677216#2 26677216#3 23166741#5 -174800513 -201238718#1 -201238718#0 -315392062#4 -24693977#1 -24693977#0 -32999434#1 32999110#0 402600768#0 402600768#1 51857517#0 51857517#0.33 51857517#1 51857516#1 -266565295#5
" />
<route id="0_5_1" edges="
315358244 379897807 137685155#0 129379968 -201950263#10 -201950263#6 -201950259#6 -201950259#3 -26677213#5 136436468#1 -201201945#1 -201201945#0 -201201945#0.78 -174800513 -201238718#1 -201238718#0 -315392062#4 -24693977#1 -24693977#0 -32999434#1 32999110#0 402600768#0 402600768#1 51857517#0 51857517#0.33 51857517#1 51857516#1 -266565295#5
" />
<route id="0_5_2" edges="
315358244 379897807 137685155#0 129379968 -201950263#10 -201950263#6 -201950259#6 -201950259#3 -26677213#5 136436468#1 -201201945#1 -201201945#0 -201201945#0.78 -174800513 201201950#0 -24634411 160314345#1 160314345#2 24634414#2 24634416 315358253#1 315358253#2 402600768#0 402600768#1 51857517#0 51857517#0.33 51857517#1 51857516#1 -266565295#5
" />
<route id="0_5_3" edges="
315358244 379897807 137685155#0 129379968 -201950263#10 -201950263#6 -201950259#6 -201950259#3 -26677213#5 136436468#1 -201201945#1 -201201945#0 -201201945#0.78 -174800513 201201950#0 -24634411 -160314345#0 -315392062#4 -24693977#1 -24693977#0 -32999434#1 32999110#0 402600768#0 402600768#1 51857517#0 51857517#0.33 51857517#1 51857516#1 -266565295#5
" />
<route id="0_12_0" edges="
315358244 379897807 137685155#0 129379921#0 129379921#1 129379920#0 129379920#1 315358246 129379922 315358252#0 447569997#0 447569997#1
" />
<route id="0_12_1" edges="
315358244 164078530 379897806 315358250#0 315358250#1 129379921#0 129379921#1 129379920#0 129379920#1 315358246 129379922 315358252#0 447569997#0 447569997#1
" />
<route id="0_12_2" edges="
315358244 379897807 137685155#0 129379968 -201950263#10 26677542#0 26677542#1 201950250#0 201950250#1 -26677539 26677416#4 40888351#3 -129379918#1 447569997#0 447569997#1
" />
<route id="0_12_3" edges="
315358244 379897807 137685155#0 129379968 -201950263#10 26677542#0 -26677417#1 -26677417#0 26677416#2 26677416#3 26677416#4 40888351#3 -129379918#1 447569997#0 447569997#1
" />
<route id="0_16_0" edges="
315358244 379897807 137685155#0 129379968 -201950263#10 26677542#0 26677542#1 -26677214#5 26677216#0 26677216#1 26677216#2 26677216#3 23166741#5 -174800513 -201238718#1 -201238724 24634510#0 24634510#1 24634510#6 204588664#0 -23436553#2 -23436553#1 -22690205#1 233675413#4 -25145011#2 -25145012#5 -25145012#4 -25187896 -25187895#0 28111977#10 -653473568#0 -18813598#8 -18813598#7 -18813598#6 -18813598#1 25122731#0 30482614 30482615#1
" />
<route id="0_16_1" edges="
315358244 379897807 137685155#0 129379968 -201950263#10 -201950263#6 -201950259#6 -201950259#3 -26677213#5 136436468#1 -201201945#1 -201201945#0 -201201945#0.78 -174800513 -201238718#1 -201238724 24634510#0 24634510#1 24634510#6 204588664#0 -23436553#2 -23436553#1 -22690205#1 233675413#4 -25145011#2 -25145011#0 -653473569#2 -653473569#1 -653473569#0 -653473568#1 -653473568#0 -18813598#8 -18813598#7 -18813598#6 -18813598#1 25122731#0 30482614 30482615#1
" />
<route id="0_16_2" edges="
315358244 379897807 137685155#0 129379968 -201950263#10 26677542#0 26677542#1 -26677214#5 26677216#0 26677216#1 26677216#2 26677216#3 23166741#5 -174800513 -201238718#1 -201238724 24634510#0 24634510#1 24634510#6 204588664#0 -23436553#2 -23436553#1 -22690205#1 233675413#4 -25145011#2 -25145011#0 -653473569#2 -653473569#1 -653473569#0 -653473568#1 -653473568#0 -18813598#8 -18813598#7 -18813598#6 -18813598#1 25122731#0 30482614 30482615#1
" />
<route id="0_16_3" edges="
315358244 379897807 137685155#0 129379968 -201950263#10 -201950263#6 -201950259#6 -201950259#3 -26677213#5 136436468#1 -201201945#1 -201201945#0 -201201945#0.78 -174800513 -201238718#1 -201238724 24634510#0 24634510#1 24634510#6 204588664#0 -23436553#2 -23436553#1 -22690205#1 233675413#4 -25145011#2 -25145012#5 -25145012#4 -25187896 -25187895#0 28111977#10 -653473568#0 -18813598#8 -18813598#7 -18813598#6 -18813598#1 25122731#0 30482614 30482615#1
" />
<route id="0_20_0" edges="
315358244 379897807 137685155#0 129379968 -201950263#10 26677542#0 26677542#1 -26677214#5 26677216#0 26677216#1 26677216#2 26677216#3 23166741#5 -174800513 201201950#0 201201950#1 201201950#2 201201950#3 201201950#4 272042145
" />
<route id="0_20_1" edges="
315358244 379897807 137685155#0 129379968 -201950263#10 -201950263#6 -201950259#6 -201950259#3 -26677213#5 136436468#1 -201201945#1 -201201945#0 -201201945#0.78 -174800513 201201950#0 201201950#1 201201950#2 201201950#3 201201950#4 272042145
" />
<route id="0_20_2" edges="
315358244 379897807 137685155#0 129379968 -201950263#10 26677542#0 26677542#1 -26677214#5 26677216#0 26677216#1 26677216#2 26677216#3 23166741#5 -174800513 201201950#0 -24634411 160314345#1 160314345#2 -24634414#1 201201950#4 272042145
" />
<route id="0_20_3" edges="
315358244 379897807 137685155#0 129379968 -201950263#10 -201950263#6 -201950259#6 -201950259#3 -26677213#5 136436468#1 -201201945#1 -201201945#0 -201201945#0.78 -174800513 201201950#0 -24634411 160314345#1 -24634413#0 201201950#3 201201950#4 272042145
" />
<route id="0_21_0" edges="
315358244 379897807 137685155#0 129379968 -201950263#10 -201950263#6 -201950259#6 -201950259#3 -26677213#5 136436468#1 -201201945#1 -201201945#0 -201201945#0.78 -174800513 -201238718#1 -201238724
" />
<route id="0_21_1" edges="
315358244 379897807 137685155#0 129379968 -201950263#10 26677542#0 26677542#1 -26677214#5 26677216#0 26677216#1 26677216#2 26677216#3 23166741#5 -174800513 -201238718#1 -201238724
" />
<route id="0_21_2" edges="
315358244 164078530 379897806 315358250#0 315358250#1 129379968 -201950263#10 -201950263#6 -201950259#6 -201950259#3 -26677213#5 136436468#1 -201201945#1 -201201945#0 -201201945#0.78 -174800513 -201238718#1 -201238724
" />
<route id="0_21_3" edges="
315358244 379897807 137685155#0 129379968 -201950263#10 -201950263#6 -201950259#6 -201950259#3 -26677213#5 136436468#1 -201201945#1 -201201945#0 -201201945#0.78 -174800513 201201950#0 -24634411 -160314345#0 201238718#0 -201238724
" />
<route id="0_23_0" edges="
315358244 379897807 137685155#0 129379968 -201950263#10 26677542#0 26677542#1 201950250#0 -26677540#2 26677541
" />
<route id="0_23_1" edges="
315358244 164078530 379897806 315358250#0 315358250#1 129379968 -201950263#10 26677542#0 26677542#1 201950250#0 -26677540#2 26677541
" />
<route id="0_23_2" edges="
315358244 379897807 137685155#0 129379968 -201950263#10 26677542#0 -26677417#1 -26677417#0 26677416#2 26677540#0 26677540#1 26677541
" />
<route id="0_23_3" edges="
315358244 379897807 137685155#0 129379968 -201950263#10 26677542#0 -26677417#1 -26677417#0 26677416#2 26677416#3 26677539 -201950250#1 -26677540#2 26677541
" />
<route id="0_39_0" edges="
315358244 379897807 137685155#0 129379968 -201950263#10 -201950263#6 -201950259#6 -201950259#3 -26677213#5 136436468#1 -201201945#1 -201201945#0 -201201945#0.78 -174800513 -201238718#1 -201238718#0
" />
<route id="0_39_1" edges="
315358244 379897807 137685155#0 129379968 -201950263#10 26677542#0 26677542#1 -26677214#5 26677216#0 26677216#1 26677216#2 26677216#3 23166741#5 -174800513 -201238718#1 -201238718#0
" />
<route id="0_39_2" edges="
315358244 164078530 379897806 315358250#0 315358250#1 129379968 -201950263#10 -201950263#6 -201950259#6 -201950259#3 -26677213#5 136436468#1 -201201945#1 -201201945#0 -201201945#0.78 -174800513 -201238718#1 -201238718#0
" />
<route id="0_39_3" edges="
315358244 164078530 379897806 315358250#0 315358250#1 129379968 -201950263#10 26677542#0 26677542#1 -26677214#5 26677216#0 26677216#1 26677216#2 26677216#3 23166741#5 -174800513 -201238718#1 -201238718#0
" />
<route id="0_51_0" edges="
315358244 379897807 137685155#0 129379968 -201950263#10 26677542#0 26677542#1 -26677214#5 26677216#0 26677216#1 26677216#2 26677216#3 23166741#5
" />
<route id="0_51_1" edges="
315358244 164078530 379897806 315358250#0 315358250#1 129379968 -201950263#10 26677542#0 26677542#1 -26677214#5 26677216#0 26677216#1 26677216#2 26677216#3 23166741#5
" />
<route id="0_51_2" edges="
315358244 379897807 137685155#0 129379968 -201950263#10 -201950263#6 -201950259#6 -201950259#3 26677214#0 26677214#3 54169231#0 54169231#1 54169231#2 26677216#1 26677216#2 26677216#3 23166741#5
" />
<route id="0_51_3" edges="
315358244 379897807 137685155#0 129379968 -201950263#10 -201950263#6 -201950259#6 -201950259#3 26677214#0 26677214#3 26677214#4 26677216#0 26677216#1 26677216#2 26677216#3 23166741#5
" />
<route id="0_52_0" edges="
315358244 379897807 137685155#0 129379921#0 129379921#1 129379920#0 129379920#1 315358246 129379922 315358252#0 129379918#0 129379925 315358242#0 315358242#1 4942376
" />
<route id="0_52_1" edges="
315358244 379897807 137685155#0 129379968 -201950263#10 26677542#0 26677542#1 201950250#0 201950250#1 -26677539 26677416#4 40888351#3 129379925 315358242#0 315358242#1 4942376
" />
<route id="0_52_2" edges="
315358244 379897807 137685155#0 129379968 -201950263#10 26677542#0 -26677417#1 -26677417#0 26677416#2 26677416#3 26677416#4 40888351#3 129379925 315358242#0 315358242#1 4942376
" />
<route id="0_52_3" edges="
315358244 164078530 379897806 315358250#0 315358250#1 129379921#0 129379921#1 129379920#0 129379920#1 315358246 129379922 315358252#0 129379918#0 129379925 315358242#0 315358242#1 4942376
" />
<route id="0_53_0" edges="
315358244 379897807 137685155#0 129379968 -201950263#10 -201950263#6 -201950259#6 -201950259#3 -26677213#5 136436468#1 -201201945#1 -201201945#0 -201201945#0.78 -174800513 -201238718#1 -201238718#0 -160314346#1 24634506#0 24634506#1 24634506#2
" />
<route id="0_53_1" edges="
315358244 379897807 137685155#0 129379968 -201950263#10 26677542#0 26677542#1 -26677214#5 26677216#0 26677216#1 26677216#2 26677216#3 23166741#5 -174800513 -201238718#1 -201238718#0 -160314346#1 24634506#0 24634506#1 24634506#2
" />
<route id="0_53_2" edges="
315358244 379897807 137685155#0 129379968 -201950263#10 -201950263#6 -201950259#6 -201950259#3 -26677213#5 136436468#1 -201201945#1 -201201945#0 -201201945#0.78 -174800513 201201950#0 -24634411 -160314345#0 -160314346#1 24634506#0 24634506#1 24634506#2
" />
<route id="0_53_3" edges="
315358244 379897807 137685155#0 129379968 -201950263#10 26677542#0 26677542#1 -26677214#5 26677216#0 26677216#1 26677216#2 26677216#3 23166741#5 -174800513 201201950#0 -24634411 -160314345#0 -160314346#1 24634506#0 24634506#1 24634506#2
" />
<route id="0_59_0" edges="
315358244 379897807 137685155#0 129379968 -201950263#10 -201950263#6 -201950259#6 -201950259#3 -26677213#5 136436468#1 -201201945#1 -201201945#0 -201201945#0.78 -174800513 201201950#0 -24634411 -160314345#0
" />
<route id="0_59_1" edges="
315358244 379897807 137685155#0 129379968 -201950263#10 26677542#0 26677542#1 -26677214#5 26677216#0 26677216#1 26677216#2 26677216#3 23166741#5 -174800513 201201950#0 -24634411 -160314345#0
" />
<route id="0_59_2" edges="
315358244 164078530 379897806 315358250#0 315358250#1 129379968 -201950263#10 26677542#0 26677542#1 -26677214#5 26677216#0 26677216#1 26677216#2 26677216#3 23166741#5 -174800513 201201950#0 -24634411 -160314345#0
" />
<route id="0_59_3" edges="
315358244 164078530 379897806 315358250#0 315358250#1 129379968 -201950263#10 -201950263#6 -201950259#6 -201950259#3 -26677213#5 136436468#1 -201201945#1 -201201945#0 -201201945#0.78 -174800513 201201950#0 -24634411 -160314345#0
" />
<route id="0_61_0" edges="
315358244 379897807 137685155#0 129379968 -201950263#10 26677542#0 -26677417#1 -26677417#0 -26677416#1
" />
<route id="0_61_1" edges="
315358244 164078530 379897806 315358250#0 315358250#1 129379968 -201950263#10 26677542#0 -26677417#1 -26677417#0 -26677416#1
" />
<route id="0_61_2" edges="
315358244 379897807 137685155#0 129379968 -201950263#10 -201950263#6 -201950259#6 -201950259#3 26677214#0 26677214#3 54169231#0 54169231#1 54169231#2 -26677216#0 26677214#5 -26677542#1 -26677417#1 -26677417#0 -26677416#1
" />
<route id="0_61_3" edges="
315358244 164078530 379897806 315358250#0 315358250#1 129379968 -201950263#10 26677542#0 26677542#1 201950250#0 -26677540#2 26677541 26677540#1 26677540#2 -201950250#0 -26677542#1 -26677417#1 -26677417#0 -26677416#1
" />
<route id="0_62_0" edges="
315358244 379897807 137685155#0 129379968 -201950263#10 -201950263#6 -25117391#2 -25117391#1 -201089420#1 28319300#0
" />
<route id="0_62_1" edges="
315358244 164078530 379897806 315358250#0 315358250#1 129379968 -201950263#10 -201950263#6 -25117391#2 -25117391#1 -201089420#1 28319300#0
" />
<route id="0_62_2" edges="
315358244 379897807 137685155#0 129379968 -201950263#10 26677542#0 26677542#1 -26677214#5 -26677214#4 -26677214#3 -26677214#2 -26677213#5 136436468#1 201201945#2 201201945#3 201201945#7 -40888359 28319300#0
" />
<route id="0_62_3" edges="
315358244 379897807 137685155#0 129379968 -201950263#10 -201950263#6 -201950259#6 -201950259#3 -26677213#5 136436468#1 201201945#2 201201945#3 201201945#7 201201945#8 28319300#0
" />
<route id="0_72_0" edges="
315358244 379897807 137685155#0 129379968 -201950263#10 -201950263#6 -201950259#6 -201950259#3 -26677213#5 136436468#1 -201201945#1 -201201945#0 -201201945#0.78 -174800513 201201950#0 -24634411 160314345#1 160314345#2 24634414#2 24634414#3 24634414#4 -37386279 -24634413#2
" />
<route id="0_72_1" edges="
315358244 379897807 137685155#0 129379968 -201950263#10 -201950263#6 -201950259#6 -201950259#3 -26677213#5 136436468#1 -201201945#1 -201201945#0 -201201945#0.78 -174800513 -201238718#1 -201238718#0 -315392062#4 -24693977#1 -24693977#0 -32999434#1 -24634414#5 -37386279 -24634413#2
" />
<route id="0_72_2" edges="
315358244 379897807 137685155#0 129379968 -201950263#10 26677542#0 26677542#1 -26677214#5 26677216#0 26677216#1 26677216#2 26677216#3 23166741#5 -174800513 -201238718#1 -201238718#0 -315392062#4 -24693977#1 -24693977#0 -32999434#1 -24634414#5 -37386279 -24634413#2
" />
<route id="0_72_3" edges="
315358244 379897807 137685155#0 129379968 -201950263#10 26677542#0 26677542#1 -26677214#5 26677216#0 26677216#1 26677216#2 26677216#3 23166741#5 -174800513 201201950#0 -24634411 160314345#1 160314345#2 24634414#2 24634414#3 24634414#4 -37386279 -24634413#2
" />
<route id="0_77_0" edges="
315358244 379897807 137685155#0 129379968 -201950263#10 26677542#0 26677542#1 -26677214#5 -26677214#4 54169231#0 54169231#1 54169231#2 -26677216#0
" />
<route id="0_77_1" edges="
315358244 379897807 137685155#0 129379968 -201950263#10 -201950263#6 -201950259#6 -201950259#3 26677214#0 26677214#3 54169231#0 54169231#1 54169231#2 -26677216#0
" />
<route id="0_77_2" edges="
315358244 164078530 379897806 315358250#0 315358250#1 129379968 -201950263#10 26677542#0 26677542#1 -26677214#5 -26677214#4 54169231#0 54169231#1 54169231#2 -26677216#0
" />
<route id="0_77_3" edges="
315358244 164078530 379897806 315358250#0 315358250#1 129379968 -201950263#10 -201950263#6 -201950259#6 -201950259#3 26677214#0 26677214#3 54169231#0 54169231#1 54169231#2 -26677216#0
" />
<route id="0_80_0" edges="
315358244 379897807 137685155#0 129379968 -201950263#10 -201950263#6 -201950259#6 -201950259#3 -26677213#5 136436468#1 -201201945#1 -201201945#0 -201201945#0.78 -174800513 -201238718#1 -201238718#0 -315392062#4 -24634508 -24634507
" />
<route id="0_80_1" edges="
315358244 379897807 137685155#0 129379968 -201950263#10 26677542#0 26677542#1 -26677214#5 26677216#0 26677216#1 26677216#2 26677216#3 23166741#5 -174800513 -201238718#1 -201238718#0 -315392062#4 -24634508 -24634507
" />
<route id="0_80_2" edges="
315358244 379897807 137685155#0 129379968 -201950263#10 26677542#0 26677542#1 -26677214#5 26677216#0 26677216#1 26677216#2 26677216#3 23166741#5 -174800513 201201950#0 -24634411 -160314345#0 -315392062#4 -24634508 -24634507
" />
<route id="0_80_3" edges="
315358244 379897807 137685155#0 129379968 -201950263#10 -201950263#6 -201950259#6 -201950259#3 -26677213#5 136436468#1 -201201945#1 -201201945#0 -201201945#0.78 -174800513 201201950#0 -24634411 -160314345#0 -315392062#4 -24634508 -24634507
" />
<route id="0_92_0" edges="
315358244 379897807 137685155#0 129379968 -201950263#10 -201950263#6 -201950259#6 -201950259#3 -26677213#5 136436468#1 -201201945#1 -201201945#0 -201201945#0.78 -174800513 -201238718#1 -201238718#0 -315392062#4 -24693977#1 -24693977#0 -32999434#1 32999110#0 402600768#0 402600768#1 51857517#0 51857517#0.33 51857517#1 51857516#1
" />
<route id="0_92_1" edges="
315358244 379897807 137685155#0 129379968 -201950263#10 26677542#0 26677542#1 -26677214#5 26677216#0 26677216#1 26677216#2 26677216#3 23166741#5 -174800513 -201238718#1 -201238718#0 -315392062#4 -24693977#1 -24693977#0 -32999434#1 32999110#0 402600768#0 402600768#1 51857517#0 51857517#0.33 51857517#1 51857516#1
" />
<route id="0_92_2" edges="
315358244 379897807 137685155#0 129379968 -201950263#10 26677542#0 26677542#1 -26677214#5 26677216#0 26677216#1 26677216#2 26677216#3 23166741#5 -174800513 201201950#0 -24634411 -160314345#0 -315392062#4 -24693977#1 -24693977#0 -32999434#1 32999110#0 402600768#0 402600768#1 51857517#0 51857517#0.33 51857517#1 51857516#1
" />
<route id="0_92_3" edges="
315358244 379897807 137685155#0 129379968 -201950263#10 -201950263#6 -201950259#6 -201950259#3 -26677213#5 136436468#1 -201201945#1 -201201945#0 -201201945#0.78 -174800513 201201950#0 -24634411 -160314345#0 -315392062#4 -24693977#1 -24693977#0 -32999434#1 32999110#0 402600768#0 402600768#1 51857517#0 51857517#0.33 51857517#1 51857516#1
" />
<route id="0_93_0" edges="
315358244 379897807 137685155#0 129379968 -201950263#10 26677542#0 26677542#1 -26677214#5 26677216#0 26677216#1 26677216#2 26677216#3 23166741#5 -174800513 -201238718#1 -201238718#0 -315392062#4 -24693977#1 -24693977#0 -32999434#1 32999110#0
" />
<route id="0_93_1" edges="
315358244 379897807 137685155#0 129379968 -201950263#10 -201950263#6 -201950259#6 -201950259#3 -26677213#5 136436468#1 -201201945#1 -201201945#0 -201201945#0.78 -174800513 -201238718#1 -201238718#0 -315392062#4 -24693977#1 -24693977#0 -32999434#1 32999110#0
" />
<route id="0_93_2" edges="
315358244 379897807 137685155#0 129379968 -201950263#10 -201950263#6 -201950259#6 -201950259#3 -26677213#5 136436468#1 -201201945#1 -201201945#0 -201201945#0.78 -174800513 201201950#0 -24634411 -160314345#0 -315392062#4 -24693977#1 -24693977#0 -32999434#1 32999110#0
" />
<route id="0_93_3" edges="
315358244 379897807 137685155#0 129379968 -201950263#10 26677542#0 26677542#1 -26677214#5 26677216#0 26677216#1 26677216#2 26677216#3 23166741#5 -174800513 201201950#0 -24634411 -160314345#0 -315392062#4 -24693977#1 -24693977#0 -32999434#1 32999110#0
" />
<route id="0_98_0" edges="
315358244 379897807 137685155#0 129379968 -201950263#10 -201950263#6 -201950259#6 -201950259#3 -26677213#5 136436468#1 -201201945#1 -201201945#0 -201201945#0.78 -174800513 -201238718#1 -201238724 24634510#0 24634510#1
" />
<route id="0_98_1" edges="
315358244 379897807 137685155#0 129379968 -201950263#10 26677542#0 26677542#1 -26677214#5 26677216#0 26677216#1 26677216#2 26677216#3 23166741#5 -174800513 -201238718#1 -201238724 24634510#0 24634510#1
" />
<route id="0_98_2" edges="
315358244 164078530 379897806 315358250#0 315358250#1 129379968 -201950263#10 -201950263#6 -201950259#6 -201950259#3 -26677213#5 136436468#1 -201201945#1 -201201945#0 -201201945#0.78 -174800513 -201238718#1 -201238724 24634510#0 24634510#1
" />
<route id="0_98_3" edges="
315358244 164078530 379897806 315358250#0 315358250#1 129379968 -201950263#10 26677542#0 26677542#1 -26677214#5 26677216#0 26677216#1 26677216#2 26677216#3 23166741#5 -174800513 -201238718#1 -201238724 24634510#0 24634510#1
" />
<route id="0_101_0" edges="
315358244 379897807 137685155#0 129379968 -201950263#10 -201950263#6 -201950259#6 -201950259#3 -26677213#5 136436468#1 -201201945#1 -201201945#0 -201201945#0.78 -174800513 -201238718#1
" />
<route id="0_101_1" edges="
315358244 379897807 137685155#0 129379968 -201950263#10 26677542#0 26677542#1 -26677214#5 26677216#0 26677216#1 26677216#2 26677216#3 23166741#5 -174800513 -201238718#1
" />
<route id="0_101_2" edges="
315358244 164078530 379897806 315358250#0 315358250#1 129379968 -201950263#10 26677542#0 26677542#1 -26677214#5 26677216#0 26677216#1 26677216#2 26677216#3 23166741#5 -174800513 -201238718#1
" />
<route id="0_101_3" edges="
315358244 164078530 379897806 315358250#0 315358250#1 129379968 -201950263#10 -201950263#6 -201950259#6 -201950259#3 -26677213#5 136436468#1 -201201945#1 -201201945#0 -201201945#0.78 -174800513 -201238718#1
" />
<route id="0_102_0" edges="
315358244 379897807 137685155#0 129379968 -201950263#10 26677542#0 26677542#1 201950250#0 201950250#1 201950250#2 40888351#0 40888354#0 40888354#1 40888354#2 53396619#3
" />
<route id="0_102_1" edges="
315358244 379897807 137685155#0 129379968 -201950263#10 26677542#0 26677542#1 201950250#0 201950250#1 -26677539 26677416#4 -40888351#2 40888354#0 40888354#1 40888354#2 53396619#3
" />
<route id="0_102_2" edges="
315358244 379897807 137685155#0 129379968 -201950263#10 26677542#0 -26677417#1 -26677417#0 26677416#2 26677416#3 26677416#4 -40888351#2 40888354#0 40888354#1 40888354#2 53396619#3
" />
<route id="0_102_3" edges="
315358244 379897807 137685155#0 129379968 -201950263#10 26677542#0 -26677417#1 -26677417#0 26677416#2 26677416#3 26677539 201950250#2 40888351#0 40888354#0 40888354#1 40888354#2 53396619#3
" />
<route id="0_118_0" edges="
315358244 379897807 137685155#0 129379968 -201950263#10 -201950263#6 -201950259#6 -201950259#3 -26677213#5 136436468#1 -201201945#1 -201201945#0 -201201945#0.78 -174800513 -201238718#1 -201238724 -24634505 -24608845 -160314351#1 -160314351#0 -24634506#2 -24634506#1 -24634506#0
" />
<route id="0_118_1" edges="
315358244 379897807 137685155#0 129379968 -201950263#10 -201950263#6 -201950259#6 -201950259#3 -26677213#5 136436468#1 -201201945#1 -201201945#0 -201201945#0.78 -174800513 -201238718#1 -201238718#0 -160314346#1 24634506#0 24634506#1 -31395281 31395281 -24634506#1 -24634506#0
" />
<route id="0_118_2" edges="
315358244 379897807 137685155#0 129379968 -201950263#10 26677542#0 26677542#1 -26677214#5 26677216#0 26677216#1 26677216#2 26677216#3 23166741#5 -174800513 -201238718#1 -201238724 -24634505 -24608845 -160314351#1 -160314351#0 -24634506#2 -24634506#1 -24634506#0
" />
<route id="0_118_3" edges="
315358244 379897807 137685155#0 129379968 -201950263#10 26677542#0 26677542#1 -26677214#5 26677216#0 26677216#1 26677216#2 26677216#3 23166741#5 -174800513 -201238718#1 -201238718#0 -160314346#1 24634506#0 24634506#1 -31395281 31395281 -24634506#1 -24634506#0
" />
<route id="0_119_0" edges="
315358244 379897807 137685155#0 129379968 -201950263#10 -201950263#6 -201950259#6 -201950259#3 -26677213#5 -136436468#0
" />
<route id="0_119_1" edges="
315358244 164078530 379897806 315358250#0 315358250#1 129379968 -201950263#10 -201950263#6 -201950259#6 -201950259#3 -26677213#5 -136436468#0
" />
<route id="0_119_2" edges="
315358244 164078530 379897806 315358250#0 315358250#1 129379968 -201950263#10 26677542#0 26677542#1 -26677214#5 -26677214#4 -26677214#3 -26677214#2 -26677213#5 -136436468#0
" />
<route id="0_119_3" edges="
315358244 379897807 137685155#0 129379968 -201950263#10 26677542#0 26677542#1 -26677214#5 -26677214#4 -26677214#3 -26677214#2 -26677213#5 -136436468#0
" />
<route id="0_122_0" edges="
315358244 379897807 137685155#0 129379921#0 129379921#1 129379920#0 129379920#1 315358246 129379922 315358252#0 129379918#0 129379925 315358242#0 315358242#1 315358242#2 315358242#3 315358251#1 386687242 23166741#0 -40888350
" />
<route id="0_122_1" edges="
315358244 379897807 137685155#0 129379968 -201950263#10 26677542#0 26677542#1 -26677214#5 26677216#0 26677216#1 26677216#2 26677216#3 23166741#5 -174800513 201201950#0 201201950#1 201201950#2 201201950#3 -24634414#0 -40888350
" />
<route id="0_122_2" edges="
315358244 379897807 137685155#0 129379968 -201950263#10 -201950263#6 -201950259#6 -201950259#3 -26677213#5 136436468#1 -201201945#1 -201201945#0 -201201945#0.78 -174800513 201201950#0 201201950#1 201201950#2 201201950#3 -24634414#0 -40888350
" />
<route id="0_122_3" edges="
315358244 379897807 137685155#0 129379968 -201950263#10 26677542#0 26677542#1 201950250#0 201950250#1 -26677539 26677416#4 40888351#3 129379925 315358242#0 315358242#1 315358242#2 315358242#3 315358251#1 386687242 23166741#0 -40888350
" />
<route id="0_123_0" edges="