<?xml version="1.0" encoding="UTF-8"?>

<!-- generated on 2025-02-05 23:50:16 by Eclipse SUMO netconvert Version 1.19.0
<configuration xmlns:xsi="http://www.w3.org/2001/XMLSchema-instance" xsi:noNamespaceSchemaLocation="http://sumo.dlr.de/xsd/netconvertConfiguration.xsd">

    <input>
        <sumo-net-file value="bs3d.net.xml"/>
    </input>

    <output>
        <plain-output-prefix value="bs3d"/>
    </output>

    <processing>
        <geometry.min-radius.fix.railways value="false"/>
        <geometry.max-grade.fix value="false"/>
        <offset.disable-normalization value="true"/>
        <lefthand value="0"/>
    </processing>

    <junctions>
        <no-turnarounds value="true"/>
        <junctions.corner-detail value="0"/>
        <junctions.limit-turn-speed value="-1.00"/>
        <rectangular-lane-cut value="0"/>
    </junctions>

    <pedestrian>
        <walkingareas value="0"/>
    </pedestrian>

</configuration>
-->

<connections version="1.16" xmlns:xsi="http://www.w3.org/2001/XMLSchema-instance" xsi:noNamespaceSchemaLocation="http://sumo.dlr.de/xsd/connections_file.xsd">
    <connection from="-103268088#0" to="-26384298" fromLane="0" toLane="0"/>
    <connection from="-103268088#0" to="103268088#0" fromLane="0" toLane="0"/>

    <connection from="-103268088#1" to="121069898#0" fromLane="0" toLane="0"/>
    <connection from="-103268088#1" to="-103268088#0" fromLane="0" toLane="0"/>
    <connection from="-103268088#1" to="103268088#1" fromLane="0" toLane="0"/>

    <connection from="-108892340#0" to="-7782975#4" fromLane="0" toLane="0"/>
    <connection from="-108892340#0" to="108892340#0" fromLane="0" toLane="0"/>

    <connection from="-108892340#1" to="44419041" fromLane="0" toLane="0"/>
    <connection from="-108892340#1" to="-108892340#0" fromLane="0" toLane="0"/>
    <connection from="-108892340#1" to="108892340#1" fromLane="0" toLane="0"/>

    <connection from="-121068757" to="-25363135#1" fromLane="0" toLane="0"/>
    <connection from="-121068757" to="25363135#2" fromLane="0" toLane="0"/>
    <connection from="-121068757" to="121068757" fromLane="0" toLane="0"/>

    <connection from="-121068763" to="121068763" fromLane="0" toLane="0"/>

    <connection from="-121068764" to="166445412" fromLane="0" toLane="0"/>
    <connection from="-121068764" to="121068764" fromLane="0" toLane="0"/>

    <connection from="-121068765" to="9363503#1" fromLane="0" toLane="0"/>
    <connection from="-121068765" to="121068765" fromLane="0" toLane="0"/>

    <connection from="-121069898#0" to="-103268088#0" fromLane="0" toLane="0"/>
    <connection from="-121069898#0" to="103268088#1" fromLane="0" toLane="0"/>
    <connection from="-121069898#0" to="121069898#0" fromLane="0" toLane="0"/>

    <connection from="-121069898#1" to="-121069898#0" fromLane="0" toLane="0"/>
    <connection from="-121069898#1" to="121069898#1" fromLane="0" toLane="0"/>

    <connection from="-121069900" to="-206498911#2" fromLane="0" toLane="0"/>
    <connection from="-121069900" to="206498911#3" fromLane="0" toLane="0"/>
    <connection from="-121069900" to="121069900" fromLane="0" toLane="0"/>

    <connection from="-122351619" to="-8034799#4" fromLane="0" toLane="0"/>
    <connection from="-122351619" to="8034799#5" fromLane="0" toLane="0"/>
    <connection from="-122351619" to="122351619" fromLane="0" toLane="0"/>

    <connection from="-129013950" to="129013950" fromLane="0" toLane="0"/>

    <connection from="-129014453" to="-38167738#6" fromLane="0" toLane="0"/>
    <connection from="-129014453" to="38167738#7" fromLane="0" toLane="0"/>
    <connection from="-129014453" to="129014453" fromLane="0" toLane="0"/>

    <connection from="-134220300" to="-8034799#1" fromLane="0" toLane="0"/>
    <connection from="-134220300" to="8034799#2" fromLane="0" toLane="0"/>
    <connection from="-134220300" to="134220300" fromLane="0" toLane="0"/>

    <connection from="-134220302" to="-8034799#0" fromLane="0" toLane="0"/>
    <connection from="-134220302" to="8034799#1" fromLane="0" toLane="0"/>
    <connection from="-134220302" to="134220302" fromLane="0" toLane="0"/>

    <connection from="-136492644" to="136492644" fromLane="0" toLane="0"/>

    <connection from="-159243113" to="5229164#1" fromLane="0" toLane="0"/>
    <connection from="-159243113" to="-165574143" fromLane="0" toLane="0"/>
    <connection from="-159243113" to="-5229164#0" fromLane="0" toLane="0"/>
    <connection from="-159243113" to="159243113" fromLane="0" toLane="0"/>

    <connection from="-165574143" to="33049407#3" fromLane="0" toLane="0"/>
    <connection from="-165574143" to="64797654#6" fromLane="0" toLane="0"/>
    <connection from="-165574143" to="-33049407#2" fromLane="0" toLane="0"/>
    <connection from="-165574143" to="165574143" fromLane="0" toLane="0"/>

    <connection from="-177688392" to="-177688397" fromLane="0" toLane="0"/>
    <connection from="-177688392" to="24038475#1" fromLane="0" toLane="0"/>
    <connection from="-177688392" to="-24038475#0" fromLane="0" toLane="0"/>
    <connection from="-177688392" to="177688392" fromLane="0" toLane="0"/>

    <connection from="-177688397" to="177688397" fromLane="0" toLane="0"/>

    <connection from="-179093197" to="179093197" fromLane="0" toLane="0"/>

    <connection from="-206498911#0" to="8034799#0" fromLane="0" toLane="0"/>
    <connection from="-206498911#0" to="-4304448#1" fromLane="0" toLane="0"/>
    <connection from="-206498911#0" to="206498911#0" fromLane="0" toLane="0"/>

    <connection from="-206498911#1" to="-206498911#0" fromLane="0" toLane="0"/>
    <connection from="-206498911#1" to="-22959383" fromLane="0" toLane="0"/>
    <connection from="-206498911#1" to="206498911#1" fromLane="0" toLane="0"/>

    <connection from="-206498911#2" to="-103268088#1" fromLane="0" toLane="0"/>
    <connection from="-206498911#2" to="-206498911#1" fromLane="0" toLane="0"/>
    <connection from="-206498911#2" to="206498911#2" fromLane="0" toLane="0"/>

    <connection from="-206498911#3" to="121069900" fromLane="0" toLane="0"/>
    <connection from="-206498911#3" to="-206498911#2" fromLane="0" toLane="0"/>
    <connection from="-206498911#3" to="206498911#3" fromLane="0" toLane="0"/>

    <connection from="-22959383" to="22959383" fromLane="0" toLane="0"/>

    <connection from="-24038475#0" to="33070760#1" fromLane="0" toLane="0"/>
    <connection from="-24038475#0" to="5088373#0" fromLane="0" toLane="0"/>
    <connection from="-24038475#0" to="-33070760#0" fromLane="0" toLane="0"/>
    <connection from="-24038475#0" to="24038475#0" fromLane="0" toLane="0"/>

    <connection from="-24038475#1" to="-24038475#0" fromLane="0" toLane="0"/>
    <connection from="-24038475#1" to="177688392" fromLane="0" toLane="0"/>
    <connection from="-24038475#1" to="-177688397" fromLane="0" toLane="0"/>
    <connection from="-24038475#1" to="24038475#1" fromLane="0" toLane="0"/>

    <connection from="-24038475#2" to="-24038475#1" fromLane="0" toLane="0"/>
    <connection from="-24038475#2" to="25446022" fromLane="0" toLane="0"/>
    <connection from="-24038475#2" to="24038475#2" fromLane="0" toLane="0"/>

    <connection from="-24038534#0" to="8034799#4" fromLane="0" toLane="0"/>
    <connection from="-24038534#0" to="-8034799#3" fromLane="0" toLane="0"/>
    <connection from="-24038534#0" to="24038534#0" fromLane="0" toLane="0"/>

    <connection from="-24038534#1" to="-24038534#0" fromLane="0" toLane="0"/>
    <connection from="-24038534#1" to="26384298" fromLane="0" toLane="0"/>
    <connection from="-24038534#1" to="24038534#1" fromLane="0" toLane="0"/>

    <connection from="-24396404" to="33070760#3" fromLane="0" toLane="0"/>
    <connection from="-24396404" to="-33070760#2" fromLane="0" toLane="0"/>
    <connection from="-24396404" to="24396404" fromLane="0" toLane="0"/>

    <connection from="-25068137" to="25068137" fromLane="0" toLane="0"/>

    <connection from="-25068700" to="25068700" fromLane="0" toLane="0"/>

    <connection from="-25363135#0" to="7745716#0" fromLane="0" toLane="0"/>
    <connection from="-25363135#0" to="-33070760#3" fromLane="0" toLane="0"/>
    <connection from="-25363135#0" to="25363135#0" fromLane="0" toLane="0"/>

    <connection from="-25363135#1" to="-25363135#0" fromLane="0" toLane="0"/>
    <connection from="-25363135#1" to="25363135#1" fromLane="0" toLane="0"/>

    <connection from="-25363135#2" to="121068757" fromLane="0" toLane="0"/>
    <connection from="-25363135#2" to="-25363135#1" fromLane="0" toLane="0"/>
    <connection from="-25363135#2" to="25363135#2" fromLane="0" toLane="0"/>

    <connection from="-25363167" to="5563258#2" fromLane="0" toLane="0"/>
    <connection from="-25363167" to="49047248" fromLane="0" toLane="0"/>
    <connection from="-25363167" to="-5563258#0" fromLane="0" toLane="0"/>
    <connection from="-25363167" to="25363167" fromLane="0" toLane="0"/>

    <connection from="-25446022" to="24038475#2" fromLane="0" toLane="0"/>
    <connection from="-25446022" to="-24038475#1" fromLane="0" toLane="0"/>
    <connection from="-25446022" to="25446022" fromLane="0" toLane="0"/>

    <connection from="-25485133#0" to="50005239#0" fromLane="0" toLane="0"/>
    <connection from="-25485133#0" to="-25485133#2" fromLane="0" toLane="0"/>
    <connection from="-25485133#0" to="25485133#0" fromLane="0" toLane="0"/>

    <connection from="-25485133#1" to="-25485133#0" fromLane="0" toLane="0"/>
    <connection from="-25485133#1" to="25485133#1" fromLane="0" toLane="0"/>

    <connection from="-25485133#2" to="-25485133#1" fromLane="0" toLane="0"/>
    <connection from="-25485133#2" to="25485133#2" fromLane="0" toLane="0"/>

    <connection from="-25952467" to="-8034799#2" fromLane="0" toLane="0"/>
    <connection from="-25952467" to="8034799#3" fromLane="0" toLane="0"/>
    <connection from="-25952467" to="25952467" fromLane="0" toLane="0"/>

    <connection from="-26384237#0" to="23209601#2" fromLane="0" toLane="0"/>
    <connection from="-26384237#0" to="26384237#0" fromLane="0" toLane="0"/>

    <connection from="-26384237#1" to="-26384237#2" fromLane="0" toLane="0"/>
    <connection from="-26384237#1" to="-26384237#0" fromLane="0" toLane="0"/>
    <connection from="-26384237#1" to="26384237#1" fromLane="0" toLane="0"/>

    <connection from="-26384237#2" to="-26384237#1" fromLane="0" toLane="0"/>
    <connection from="-26384237#2" to="26384237#2" fromLane="0" toLane="0"/>

    <connection from="-26384275#0" to="7745716#6" fromLane="0" toLane="0"/>
    <connection from="-26384275#0" to="26384275#0" fromLane="0" toLane="0"/>

    <connection from="-26384275#1" to="-26384275#0" fromLane="0" toLane="0"/>
    <connection from="-26384275#1" to="26384275#1" fromLane="0" toLane="0"/>

    <connection from="-26384275#2" to="-26384275#1" fromLane="0" toLane="0"/>
    <connection from="-26384275#2" to="26384275#2" fromLane="0" toLane="0"/>

    <connection from="-26384298" to="24038534#1" fromLane="0" toLane="0"/>
    <connection from="-26384298" to="-24038534#0" fromLane="0" toLane="0"/>
    <connection from="-26384298" to="26384298" fromLane="0" toLane="0"/>

    <connection from="-26562389#0" to="-7782975#3" fromLane="0" toLane="0"/>
    <connection from="-26562389#0" to="7782975#4" fromLane="0" toLane="0"/>
    <connection from="-26562389#0" to="26562389#0" fromLane="0" toLane="0"/>

    <connection from="-26562389#1" to="37601918" fromLane="0" toLane="0"/>
    <connection from="-26562389#1" to="-26562389#0" fromLane="0" toLane="0"/>
    <connection from="-26562389#1" to="26562389#1" fromLane="0" toLane="0"/>

    <connection from="-26562389#2" to="-26562389#1" fromLane="0" toLane="0"/>
    <connection from="-26562389#2" to="26562389#2" fromLane="0" toLane="0"/>

    <connection from="-26562389#3" to="26562391#0" fromLane="0" toLane="0"/>
    <connection from="-26562389#3" to="-26562389#2" fromLane="0" toLane="0"/>
    <connection from="-26562389#3" to="26562389#3" fromLane="0" toLane="0"/>

    <connection from="-26562389#4" to="26562396" fromLane="0" toLane="0"/>
    <connection from="-26562389#4" to="-26562389#3" fromLane="0" toLane="0"/>
    <connection from="-26562389#4" to="26562389#4" fromLane="0" toLane="0"/>

    <connection from="-26562389#5" to="-26562389#4" fromLane="0" toLane="0"/>
    <connection from="-26562389#5" to="26562404#0" fromLane="0" toLane="0"/>
    <connection from="-26562389#5" to="26562389#5" fromLane="0" toLane="0"/>

    <connection from="-26562391#0" to="-26562389#2" fromLane="0" toLane="0"/>
    <connection from="-26562391#0" to="26562389#3" fromLane="0" toLane="0"/>
    <connection from="-26562391#0" to="26562391#0" fromLane="0" toLane="0"/>

    <connection from="-26562391#1" to="-26562391#0" fromLane="0" toLane="0"/>
    <connection from="-26562391#1" to="-26562396" fromLane="0" toLane="0"/>
    <connection from="-26562391#1" to="26562391#1" fromLane="0" toLane="0"/>

    <connection from="-26562396" to="-26562389#3" fromLane="0" toLane="0"/>
    <connection from="-26562396" to="26562389#4" fromLane="0" toLane="0"/>
    <connection from="-26562396" to="26562396" fromLane="0" toLane="0"/>

    <connection from="-26562404#0" to="26562389#5" fromLane="0" toLane="0"/>
    <connection from="-26562404#0" to="-26562389#4" fromLane="0" toLane="0"/>
    <connection from="-26562404#0" to="26562404#0" fromLane="0" toLane="0"/>

    <connection from="-26562404#1" to="-26562404#0" fromLane="0" toLane="0"/>
    <connection from="-26562404#1" to="-37752125#1" fromLane="0" toLane="0"/>
    <connection from="-26562404#1" to="26562404#1" fromLane="0" toLane="0"/>

    <connection from="-26562404#2" to="-26562404#1" fromLane="0" toLane="0"/>
    <connection from="-26562404#2" to="37752125#0" fromLane="0" toLane="0"/>
    <connection from="-26562404#2" to="26562404#2" fromLane="0" toLane="0"/>

    <connection from="-26775981#0" to="-38167738#5" fromLane="0" toLane="0"/>
    <connection from="-26775981#0" to="38167738#6" fromLane="0" toLane="0"/>
    <connection from="-26775981#0" to="26775981#0" fromLane="0" toLane="0"/>

    <connection from="-26775981#1" to="26775984" fromLane="0" toLane="0"/>
    <connection from="-26775981#1" to="-26775981#0" fromLane="0" toLane="0"/>
    <connection from="-26775981#1" to="26775981#1" fromLane="0" toLane="0"/>

    <connection from="-26775981#2" to="-36943301" fromLane="0" toLane="0"/>
    <connection from="-26775981#2" to="-26775981#1" fromLane="0" toLane="0"/>
    <connection from="-26775981#2" to="26775981#2" fromLane="0" toLane="0"/>

    <connection from="-26775981#3" to="26776014#0" fromLane="0" toLane="0"/>
    <connection from="-26775981#3" to="-26775981#2" fromLane="0" toLane="0"/>
    <connection from="-26775981#3" to="26775981#3" fromLane="0" toLane="0"/>

    <connection from="-26775984" to="-26775981#0" fromLane="0" toLane="0"/>
    <connection from="-26775984" to="26775981#1" fromLane="0" toLane="0"/>
    <connection from="-26775984" to="26775984" fromLane="0" toLane="0"/>

    <connection from="-26776014#0" to="-26775981#2" fromLane="0" toLane="0"/>
    <connection from="-26776014#0" to="26775981#3" fromLane="0" toLane="0"/>
    <connection from="-26776014#0" to="26776014#0" fromLane="0" toLane="0"/>

    <connection from="-26776014#1" to="36943296#0" fromLane="0" toLane="0"/>
    <connection from="-26776014#1" to="-26776014#0" fromLane="0" toLane="0"/>
    <connection from="-26776014#1" to="26776014#1" fromLane="0" toLane="0"/>

    <connection from="-26776014#2" to="-26776014#1" fromLane="0" toLane="0"/>
    <connection from="-26776014#2" to="-31288488" fromLane="0" toLane="0"/>
    <connection from="-26776014#2" to="26776014#2" fromLane="0" toLane="0"/>

    <connection from="-26776014#3" to="-26776014#2" fromLane="0" toLane="0"/>
    <connection from="-26776014#3" to="26776014#3" fromLane="0" toLane="0"/>

    <connection from="-26776014#4" to="36943288#0" fromLane="0" toLane="0"/>
    <connection from="-26776014#4" to="-26776014#3" fromLane="0" toLane="0"/>
    <connection from="-26776014#4" to="26776014#4" fromLane="0" toLane="0"/>

    <connection from="-26776026#0" to="-38167738#2" fromLane="0" toLane="0"/>
    <connection from="-26776026#0" to="38167738#3" fromLane="0" toLane="0"/>
    <connection from="-26776026#0" to="26776026#0" fromLane="0" toLane="0"/>

    <connection from="-26776026#1" to="-26776026#0" fromLane="0" toLane="0"/>
    <connection from="-26776026#1" to="26776032" fromLane="0" toLane="0"/>
    <connection from="-26776026#1" to="26776026#1" fromLane="0" toLane="0"/>

    <connection from="-26776032" to="26776026#1" fromLane="0" toLane="0"/>
    <connection from="-26776032" to="-26776026#0" fromLane="0" toLane="0"/>
    <connection from="-26776032" to="26776032" fromLane="0" toLane="0"/>

    <connection from="-27059094" to="7745716#1" fromLane="0" toLane="0"/>
    <connection from="-27059094" to="27059094" fromLane="0" toLane="0"/>

    <connection from="-27059110#0" to="7745716#3" fromLane="0" toLane="0"/>
    <connection from="-27059110#0" to="27059110#0" fromLane="0" toLane="0"/>

    <connection from="-27059110#1" to="-27059110#0" fromLane="0" toLane="0"/>
    <connection from="-27059110#1" to="27059110#1" fromLane="0" toLane="0"/>

    <connection from="-30738461" to="30738461" fromLane="0" toLane="0"/>

    <connection from="-31281702#0" to="31281702#0" fromLane="0" toLane="0"/>

    <connection from="-31281702#1" to="-31281702#0" fromLane="0" toLane="0"/>
    <connection from="-31281702#1" to="31281702#1" fromLane="0" toLane="0"/>

    <connection from="-31288488" to="31288488" fromLane="0" toLane="0"/>

    <connection from="-33049407#0" to="33049438#0" fromLane="0" toLane="0"/>
    <connection from="-33049407#0" to="33049407#0" fromLane="0" toLane="0"/>
    <connection from="-33049407#0" to="64797654#3" fromLane="0" toLane="1"/>

    <connection from="-33049407#1" to="-33049407#0" fromLane="0" toLane="0"/>
    <connection from="-33049407#1" to="33049407#1" fromLane="0" toLane="0"/>
    <connection from="-33049407#1" to="64797654#4" fromLane="0" toLane="1"/>

    <connection from="-33049407#2" to="-33049407#1" fromLane="0" toLane="0"/>
    <connection from="-33049407#2" to="33049407#2" fromLane="0" toLane="0"/>
    <connection from="-33049407#2" to="64797654#5" fromLane="0" toLane="0"/>

    <connection from="-33049407#3" to="-33049407#2" fromLane="0" toLane="0"/>
    <connection from="-33049407#3" to="165574143" fromLane="0" toLane="0"/>
    <connection from="-33049407#3" to="33049407#3" fromLane="0" toLane="0"/>
    <connection from="-33049407#3" to="64797654#6" fromLane="0" toLane="0"/>

    <connection from="-33049407#4" to="-38167741#5" fromLane="0" toLane="0"/>
    <connection from="-33049407#4" to="-33049407#3" fromLane="0" toLane="0"/>
    <connection from="-33049407#4" to="33049407#4" fromLane="0" toLane="0"/>
    <connection from="-33049407#4" to="64797654#7" fromLane="0" toLane="0"/>

    <connection from="-33049407#5" to="-33049407#4" fromLane="0" toLane="0"/>
    <connection from="-33049407#5" to="33049407#5" fromLane="0" toLane="0"/>
    <connection from="-33049407#5" to="64797654#8" fromLane="0" toLane="0"/>

    <connection from="-33049407#6" to="-33049407#5" fromLane="0" toLane="0"/>
    <connection from="-33049407#6" to="33049407#6" fromLane="0" toLane="0"/>
    <connection from="-33049407#6" to="64797654#9" fromLane="0" toLane="0"/>

    <connection from="-33049407#7" to="-33049407#6" fromLane="0" toLane="0"/>
    <connection from="-33049407#7" to="33049407#7" fromLane="0" toLane="0"/>
    <connection from="-33049407#7" to="64797654#10" fromLane="0" toLane="0"/>

    <connection from="-33070760#0" to="33070760#0" fromLane="0" toLane="0"/>

    <connection from="-33070760#1" to="5088373#0" fromLane="0" toLane="0"/>
    <connection from="-33070760#1" to="-33070760#0" fromLane="0" toLane="0"/>
    <connection from="-33070760#1" to="24038475#0" fromLane="0" toLane="0"/>
    <connection from="-33070760#1" to="33070760#1" fromLane="0" toLane="0"/>

    <connection from="-33070760#2" to="-33070760#1" fromLane="0" toLane="0"/>
    <connection from="-33070760#2" to="5724308#0" fromLane="0" toLane="0"/>
    <connection from="-33070760#2" to="33070760#2" fromLane="0" toLane="0"/>

    <connection from="-33070760#3" to="-33070760#2" fromLane="0" toLane="0"/>
    <connection from="-33070760#3" to="24396404" fromLane="0" toLane="0"/>
    <connection from="-33070760#3" to="33070760#3" fromLane="0" toLane="0"/>

    <connection from="-36943288#0" to="-26776014#3" fromLane="0" toLane="0"/>
    <connection from="-36943288#0" to="26776014#4" fromLane="0" toLane="0"/>
    <connection from="-36943288#0" to="36943288#0" fromLane="0" toLane="0"/>

    <connection from="-36943288#1" to="-36943288#0" fromLane="0" toLane="0"/>
    <connection from="-36943288#1" to="36943288#1" fromLane="0" toLane="0"/>

    <connection from="-36943289#0" to="-38306209" fromLane="0" toLane="0"/>
    <connection from="-36943289#0" to="36943289#0" fromLane="0" toLane="0"/>

    <connection from="-36943289#1" to="37601917" fromLane="0" toLane="0"/>
    <connection from="-36943289#1" to="-36943289#0" fromLane="0" toLane="0"/>
    <connection from="-36943289#1" to="36943289#1" fromLane="0" toLane="0"/>

    <connection from="-36943289#2" to="-36943289#1" fromLane="0" toLane="0"/>
    <connection from="-36943289#2" to="37399605" fromLane="0" toLane="0"/>
    <connection from="-36943289#2" to="36943289#2" fromLane="0" toLane="0"/>

    <connection from="-36943289#3" to="-36943289#2" fromLane="0" toLane="0"/>
    <connection from="-36943289#3" to="37399606" fromLane="0" toLane="0"/>
    <connection from="-36943289#3" to="36943289#3" fromLane="0" toLane="0"/>

    <connection from="-36943290" to="36943290" fromLane="0" toLane="0"/>

    <connection from="-36943292#0" to="36943292#0" fromLane="0" toLane="0"/>

    <connection from="-36943292#1" to="-36943288#1" fromLane="0" toLane="0"/>
    <connection from="-36943292#1" to="-36943292#0" fromLane="0" toLane="0"/>
    <connection from="-36943292#1" to="36943292#1" fromLane="0" toLane="0"/>

    <connection from="-36943296#0" to="-26776014#0" fromLane="0" toLane="0"/>
    <connection from="-36943296#0" to="26776014#1" fromLane="0" toLane="0"/>
    <connection from="-36943296#0" to="36943296#0" fromLane="0" toLane="0"/>

    <connection from="-36943296#1" to="-36943296#0" fromLane="0" toLane="0"/>
    <connection from="-36943296#1" to="36943296#1" fromLane="0" toLane="0"/>

    <connection from="-36943301" to="36943301" fromLane="0" toLane="0"/>

    <connection from="-37399604#0" to="-38167738#1" fromLane="0" toLane="0"/>
    <connection from="-37399604#0" to="38167738#2" fromLane="0" toLane="0"/>
    <connection from="-37399604#0" to="37399604#0" fromLane="0" toLane="0"/>

    <connection from="-37399604#1" to="-37399604#0" fromLane="0" toLane="0"/>
    <connection from="-37399604#1" to="-37399606" fromLane="0" toLane="0"/>
    <connection from="-37399604#1" to="37399604#1" fromLane="0" toLane="0"/>

    <connection from="-37399604#2" to="-37415994" fromLane="0" toLane="0"/>
    <connection from="-37399604#2" to="-37399604#1" fromLane="0" toLane="0"/>
    <connection from="-37399604#2" to="37399604#2" fromLane="0" toLane="0"/>

    <connection from="-37399605" to="36943289#2" fromLane="0" toLane="0"/>
    <connection from="-37399605" to="-36943289#1" fromLane="0" toLane="0"/>
    <connection from="-37399605" to="37399605" fromLane="0" toLane="0"/>

    <connection from="-37399606" to="36943289#3" fromLane="0" toLane="0"/>
    <connection from="-37399606" to="-36943289#2" fromLane="0" toLane="0"/>
    <connection from="-37399606" to="37399606" fromLane="0" toLane="0"/>

    <connection from="-37415994" to="37415994" fromLane="0" toLane="0"/>

    <connection from="-37593790#0" to="-38167738#3" fromLane="0" toLane="0"/>
    <connection from="-37593790#0" to="38167738#4" fromLane="0" toLane="0"/>
    <connection from="-37593790#0" to="37593790#0" fromLane="0" toLane="0"/>

    <connection from="-37593790#1" to="-37593790#0" fromLane="0" toLane="0"/>
    <connection from="-37593790#1" to="-49844607" fromLane="0" toLane="0"/>
    <connection from="-37593790#1" to="37593790#1" fromLane="0" toLane="0"/>

    <connection from="-37593791#0" to="61734682#3" fromLane="0" toLane="0"/>
    <connection from="-37593791#0" to="37593791#0" fromLane="0" toLane="0"/>

    <connection from="-37593791#1" to="-37752126#1" fromLane="0" toLane="0"/>
    <connection from="-37593791#1" to="-37593791#0" fromLane="0" toLane="0"/>
    <connection from="-37593791#1" to="37593791#1" fromLane="0" toLane="0"/>

    <connection from="-37601917" to="-36943289#0" fromLane="0" toLane="0"/>
    <connection from="-37601917" to="36943289#1" fromLane="0" toLane="0"/>
    <connection from="-37601917" to="37601917" fromLane="0" toLane="0"/>

    <connection from="-37601918" to="-26562389#0" fromLane="0" toLane="0"/>
    <connection from="-37601918" to="26562389#1" fromLane="0" toLane="0"/>
    <connection from="-37601918" to="37601918" fromLane="0" toLane="0"/>

    <connection from="-37752125#0" to="26562404#2" fromLane="0" toLane="0"/>
    <connection from="-37752125#0" to="-26562404#1" fromLane="0" toLane="0"/>
    <connection from="-37752125#0" to="37752125#0" fromLane="0" toLane="0"/>

    <connection from="-37752125#1" to="-37752125#0" fromLane="0" toLane="0"/>
    <connection from="-37752125#1" to="37752125#1" fromLane="0" toLane="0"/>

    <connection from="-37752126#0" to="37752126#0" fromLane="0" toLane="0"/>

    <connection from="-37752126#1" to="-37752126#0" fromLane="0" toLane="0"/>
    <connection from="-37752126#1" to="37752126#1" fromLane="0" toLane="0"/>

    <connection from="-38167738#0" to="-7782975#2" fromLane="0" toLane="0"/>
    <connection from="-38167738#0" to="-25068137" fromLane="0" toLane="0"/>
    <connection from="-38167738#0" to="7782975#3" fromLane="0" toLane="0"/>
    <connection from="-38167738#0" to="38167738#0" fromLane="0" toLane="0"/>

    <connection from="-38167738#1" to="-38167738#0" fromLane="0" toLane="0"/>
    <connection from="-38167738#1" to="-129013950" fromLane="0" toLane="0"/>
    <connection from="-38167738#1" to="38167738#1" fromLane="0" toLane="0"/>

    <connection from="-38167738#2" to="37399604#0" fromLane="0" toLane="0"/>
    <connection from="-38167738#2" to="-38167738#1" fromLane="0" toLane="0"/>
    <connection from="-38167738#2" to="38167738#2" fromLane="0" toLane="0"/>

    <connection from="-38167738#3" to="26776026#0" fromLane="0" toLane="0"/>
    <connection from="-38167738#3" to="-38167738#2" fromLane="0" toLane="0"/>
    <connection from="-38167738#3" to="38167738#3" fromLane="0" toLane="0"/>

    <connection from="-38167738#4" to="37593790#0" fromLane="0" toLane="0"/>
    <connection from="-38167738#4" to="-38167738#3" fromLane="0" toLane="0"/>
    <connection from="-38167738#4" to="38167738#4" fromLane="0" toLane="0"/>

    <connection from="-38167738#5" to="-38167738#4" fromLane="0" toLane="0"/>
    <connection from="-38167738#5" to="-26562389#5" fromLane="0" toLane="0"/>
    <connection from="-38167738#5" to="38167738#5" fromLane="0" toLane="0"/>

    <connection from="-38167738#6" to="26775981#0" fromLane="0" toLane="0"/>
    <connection from="-38167738#6" to="-38167738#5" fromLane="0" toLane="0"/>
    <connection from="-38167738#6" to="38167738#6" fromLane="0" toLane="0"/>

    <connection from="-38167738#7" to="129014453" fromLane="0" toLane="0"/>
    <connection from="-38167738#7" to="-38167738#6" fromLane="0" toLane="0"/>
    <connection from="-38167738#7" to="38167738#7" fromLane="0" toLane="0"/>

    <connection from="-38167738#8" to="-38167738#7" fromLane="0" toLane="0"/>
    <connection from="-38167738#8" to="-26562404#2" fromLane="0" toLane="0"/>
    <connection from="-38167738#8" to="38167738#8" fromLane="0" toLane="0"/>

    <connection from="-38167741#1" to="23207363#1" fromLane="0" toLane="0"/>
    <connection from="-38167741#1" to="-38167738#8" fromLane="0" toLane="0"/>
    <connection from="-38167741#1" to="61734682#2" fromLane="0" toLane="1"/>
    <connection from="-38167741#1" to="38167741#1" fromLane="0" toLane="0"/>

    <connection from="-38167741#2" to="-38167741#1" fromLane="0" toLane="0"/>
    <connection from="-38167741#2" to="5237597" fromLane="0" toLane="0"/>
    <connection from="-38167741#2" to="38167741#2" fromLane="0" toLane="0"/>

    <connection from="-38167741#3" to="-38167741#2" fromLane="0" toLane="0"/>
    <connection from="-38167741#3" to="-5237595" fromLane="0" toLane="0"/>
    <connection from="-38167741#3" to="38167741#3" fromLane="0" toLane="0"/>

    <connection from="-38167741#5" to="-30738461" fromLane="0" toLane="0"/>
    <connection from="-38167741#5" to="-38167741#3" fromLane="0" toLane="0"/>
    <connection from="-38167741#5" to="-5724307" fromLane="0" toLane="0"/>
    <connection from="-38167741#5" to="38167741#5" fromLane="0" toLane="0"/>

    <connection from="-38227185" to="-37593790#1" fromLane="0" toLane="0"/>
    <connection from="-38227185" to="38227185" fromLane="0" toLane="0"/>

    <connection from="-38306209" to="-36943290" fromLane="0" toLane="0"/>
    <connection from="-38306209" to="38306209" fromLane="0" toLane="0"/>

    <connection from="-39085064" to="-8034799#5" fromLane="0" toLane="0"/>
    <connection from="-39085064" to="8034799#6" fromLane="0" toLane="0"/>
    <connection from="-39085064" to="39085064" fromLane="0" toLane="0"/>

    <connection from="-4304448#1" to="4314834#1" fromLane="0" toLane="0"/>
    <connection from="-4304448#1" to="206498903" fromLane="0" toLane="1"/>
    <connection from="-4304448#1" to="4304448#1" fromLane="0" toLane="0"/>

    <connection from="-44068783" to="30425847#3" fromLane="0" toLane="0"/>
    <connection from="-44068783" to="44068783" fromLane="0" toLane="0"/>

    <connection from="-44419041" to="-108892340#0" fromLane="0" toLane="0"/>
    <connection from="-44419041" to="108892340#1" fromLane="0" toLane="0"/>