<?xml version="1.0" encoding="UTF-8"?>

<!-- generated on 2025-02-05 23:50:16 by Eclipse SUMO netconvert Version 1.19.0
<configuration xmlns:xsi="http://www.w3.org/2001/XMLSchema-instance" xsi:noNamespaceSchemaLocation="http://sumo.dlr.de/xsd/netconvertConfiguration.xsd">

    <input>
        <sumo-net-file value="bs3d.net.xml"/>
    </input>

    <output>
        <plain-output-prefix value="bs3d"/>
    </output>

    <processing>
        <geometry.min-radius.fix.railways value="false"/>
        <geometry.max-grade.fix value="false"/>
        <offset.disable-normalization value="true"/>
        <lefthand value="0"/>
    </processing>

    <junctions>
        <no-turnarounds value="true"/>
        <junctions.corner-detail value="0"/>
        <junctions.limit-turn-speed value="-1.00"/>
        <rectangular-lane-cut value="0"/>
    </junctions>

    <pedestrian>
        <walkingareas value="0"/>
    </pedestrian>

</configuration>
-->

<tlLogics version="1.16" xmlns:xsi="http://www.w3.org/2001/XMLSchema-instance" xsi:noNamespaceSchemaLocation="http://sumo.dlr.de/xsd/tllogic_file.xsd">
    <tlLogic id="cluster_104171179_28142770_28298581_28298587" type="static" programID="0" offset="0">
        <phase duration="4"  state="rrryyuuuuurrryyuuuuu"/>
        <phase duration="2"  state="rrrrruuuuurrrrruuuuu"/>
        <phase duration="1000" state="rrrrrGGGggrrrrrGGGgg"/>
    </tlLogic>
    <tlLogic id="cluster_104171179_28142770_28298581_28298587" type="static" programID="1" offset="0">
        <phase duration="4"  state="rrrrryyyuurrrrryyyuu"/>
        <phase duration="2"  state="rrrrrrrrrrrrrrrrrrrr"/>
        <phase duration="1000" state="rrrrrrrrGGrrrrrrrrGG"/>
    </tlLogic>
    <tlLogic id="cluster_104171179_28142770_28298581_28298587" type="static" programID="2" offset="0">
        <phase duration="4"  state="uuuuurrryyuuuuurrryy"/>
        <phase duration="2"  state="uuuuurrrrruuuuurrrrr"/>
        <phase duration="1000" state="GGGggrrrrrGGGggrrrrr"/>
    </tlLogic>
    <tlLogic id="cluster_104171179_28142770_28298581_28298587" type="static" programID="3" offset="0">
        <phase duration="4"  state="yyyuurrrrryyyuurrrrr"/>
        <phase duration="2"  state="rrruurrrrrrrruurrrrr"/>
        <phase duration="1000" state="rrrGGrrrrrrrrGGrrrrr"/>
    </tlLogic>

    <connection from="166445405" to="23207363#0" fromLane="0" toLane="0" tl="cluster_104171179_28142770_28298581_28298587" linkIndex="5"/>
    <connection from="166445405" to="23204862" fromLane="0" toLane="0" tl="cluster_104171179_28142770_28298581_28298587" linkIndex="6"/>
    <connection from="166445405" to="23204862" fromLane="1" toLane="1" tl="cluster_104171179_28142770_28298581_28298587" linkIndex="7"/>
    <connection from="166445405" to="30425847#0" fromLane="1" toLane="1" tl="cluster_104171179_28142770_28298581_28298587" linkIndex="8"/>
    <connection from="166445405" to="29136063#0" fromLane="1" toLane="1" tl="cluster_104171179_28142770_28298581_28298587" linkIndex="9"/>
    <connection from="166445407" to="23204862" fromLane="0" toLane="0" tl="cluster_104171179_28142770_28298581_28298587" linkIndex="0"/>
    <connection from="166445407" to="30425847#0" fromLane="0" toLane="0" tl="cluster_104171179_28142770_28298581_28298587" linkIndex="1"/>
    <connection from="166445407" to="30425847#0" fromLane="1" toLane="1" tl="cluster_104171179_28142770_28298581_28298587" linkIndex="2"/>
    <connection from="166445407" to="29136063#0" fromLane="1" toLane="1" tl="cluster_104171179_28142770_28298581_28298587" linkIndex="3"/>
    <connection from="166445407" to="23207363#0" fromLane="1" toLane="1" tl="cluster_104171179_28142770_28298581_28298587" linkIndex="4"/>
    <connection from="166445412" to="29136063#0" fromLane="0" toLane="0" tl="cluster_104171179_28142770_28298581_28298587" linkIndex="10"/>
    <connection from="166445412" to="23207363#0" fromLane="0" toLane="0" tl="cluster_104171179_28142770_28298581_28298587" linkIndex="11"/>
    <connection from="166445412" to="23207363#0" fromLane="1" toLane="1" tl="cluster_104171179_28142770_28298581_28298587" linkIndex="12"/>
    <connection from="166445412" to="23204862" fromLane="1" toLane="1" tl="cluster_104171179_28142770_28298581_28298587" linkIndex="13"/>
    <connection from="166445412" to="30425847#0" fromLane="1" toLane="1" tl="cluster_104171179_28142770_28298581_28298587" linkIndex="14"/>
    <connection from="4314834#3" to="30425847#0" fromLane="0" toLane="0" tl="cluster_104171179_28142770_28298581_28298587" linkIndex="15"/>
    <connection from="4314834#3" to="29136063#0" fromLane="0" toLane="0" tl="cluster_104171179_28142770_28298581_28298587" linkIndex="16"/>
    <connection from="4314834#3" to="29136063#0" fromLane="1" toLane="1" tl="cluster_104171179_28142770_28298581_28298587" linkIndex="17"/>
    <connection from="4314834#3" to="23207363#0" fromLane="1" toLane="1" tl="cluster_104171179_28142770_28298581_28298587" linkIndex="18"/>
    <connection from="4314834#3" to="23204862" fromLane="1" toLane="1" tl="cluster_104171179_28142770_28298581_28298587" linkIndex="19"/>
</tlLogics>
