<?xml version="1.0" encoding="UTF-8"?>

<!-- generated on 2025-02-05 23:50:27 by Eclipse SUMO netconvert Version 1.19.0
<configuration xmlns:xsi="http://www.w3.org/2001/XMLSchema-instance" xsi:noNamespaceSchemaLocation="http://sumo.dlr.de/xsd/netconvertConfiguration.xsd">

    <input>
        <sumo-net-file value="bs3d.net.xml"/>
    </input>

    <output>
        <output-file value="bs3d.rou.xml"/>
    </output>

    <processing>
        <geometry.min-radius.fix.railways value="false"/>
        <geometry.max-grade.fix value="false"/>
        <offset.disable-normalization value="true"/>
        <lefthand value="0"/>
    </processing>

    <junctions>
        <no-turnarounds value="true"/>
        <junctions.corner-detail value="0"/>
        <junctions.limit-turn-speed value="-1.00"/>
        <rectangular-lane-cut value="0"/>
    </junctions>

    <pedestrian>
        <walkingareas value="0"/>
    </pedestrian>

</configuration>
-->

<net version="1.16" xmlns:xsi="http://www.w3.org/2001/XMLSchema-instance" xsi:noNamespaceSchemaLocation="http://sumo.dlr.de/xsd/net_file.xsd">

    <location netOffset="-604099.60,-5792153.74" convBoundary="0.00,0.00,1593.78,2141.25" origBoundary="10.525796,52.269679,10.549189,52.288860" projParameter="+proj=utm +zone=32 +ellps=WGS84 +datum=WGS84 +units=m +no_defs"/>

    <edge id=":1192507866_0" function="internal">
        <lane id=":1192507866_0_0" index="0" allow="delivery" speed="5.56" length="0.30" shape="526.39,788.36 526.36,788.44 526.34,788.50 526.33,788.56 526.32,788.65"/>
    </edge>
    <edge id=":1192507866_1" function="internal">
        <lane id=":1192507866_1_0" index="0" allow="delivery" speed="5.56" length="1.44" shape="526.39,788.36 525.24,789.23"/>
    </edge>
    <edge id=":1192507866_4" function="internal">
        <lane id=":1192507866_4_0" index="0" allow="delivery" speed="5.56" length="3.23" shape="525.24,789.23 524.35,789.34 523.73,788.70 523.37,787.31"/>
    </edge>
    <edge id=":1192507866_2" function="internal">
        <lane id=":1192507866_2_0" index="0" allow="delivery" speed="5.56" length="0.91" shape="523.15,788.19 523.19,787.92 523.23,787.74 523.28,787.56 523.37,787.31"/>
    </edge>
    <edge id=":1192507866_3" function="internal">
        <lane id=":1192507866_3_0" index="0" allow="delivery" speed="5.56" length="2.34" shape="523.15,788.19 524.12,787.12 524.97,786.84"/>
    </edge>
    <edge id=":1192507866_5" function="internal">
        <lane id=":1192507866_5_0" index="0" allow="delivery" speed="5.56" length="2.34" shape="524.97,786.84 525.70,787.35 526.32,788.65"/>
    </edge>
    <edge id=":1356130726_0" function="internal">
        <lane id=":1356130726_0_0" index="0" allow="pedestrian" speed="8.33" length="4.67" shape="653.16,490.88 652.07,489.95 651.76,489.10 652.25,488.36 653.54,487.70"/>
    </edge>
    <edge id=":1356130728_0" function="internal">
        <lane id=":1356130728_0_0" index="0" allow="delivery" speed="9.72" length="5.07" shape="590.13,617.44 590.28,618.84 590.83,619.87 591.76,620.53 593.07,620.83"/>
    </edge>
    <edge id=":1356130728_1" function="internal">
        <lane id=":1356130728_1_0" index="0" allow="delivery" speed="5.56" length="4.67" shape="590.13,617.44 589.30,618.62 588.49,619.00 587.70,618.58 586.93,617.36"/>
    </edge>
    <edge id=":1356130728_2" function="internal">
        <lane id=":1356130728_2_0" index="0" allow="delivery" speed="9.72" length="5.00" shape="583.76,620.39 585.12,620.23 586.10,619.67 586.70,618.71 586.93,617.36"/>
    </edge>
    <edge id=":1356130728_3" function="internal">
        <lane id=":1356130728_3_0" index="0" speed="13.89" length="9.25" shape="583.76,620.39 593.07,620.83"/>
        <lane id=":1356130728_3_1" index="1" speed="13.89" length="9.25" shape="583.68,623.59 592.84,624.02"/>
    </edge>
    <edge id=":1356130740_0" function="internal">
        <lane id=":1356130740_0_0" index="0" speed="8.33" length="9.42" shape="664.42,485.93 662.74,495.20"/>
    </edge>
    <edge id=":1356130740_1" function="internal">
        <lane id=":1356130740_1_0" index="0" allow="pedestrian" speed="8.33" length="7.88" shape="664.42,485.93 663.74,488.58 662.79,490.42 661.58,491.45 660.11,491.68"/>
    </edge>
    <edge id=":1356130740_2" function="internal">
        <lane id=":1356130740_2_0" index="0" allow="pedestrian" speed="8.33" length="1.08" shape="660.46,488.50 661.46,488.89"/>
    </edge>
    <edge id=":1356130740_3" function="internal">
        <lane id=":1356130740_3_0" index="0" allow="pedestrian" speed="8.33" length="1.18" shape="660.46,488.50 661.36,489.26"/>
    </edge>
    <edge id=":1356130740_4" function="internal">
        <lane id=":1356130740_4_0" index="0" allow="pedestrian" speed="8.33" length="6.89" shape="661.46,488.89 661.88,489.06 662.74,490.36 663.03,492.41 662.74,495.20"/>
    </edge>
    <edge id=":1356130740_5" function="internal">
        <lane id=":1356130740_5_0" index="0" allow="pedestrian" speed="8.33" length="3.49" shape="661.36,489.26 661.56,489.43 661.88,490.26 661.39,491.02 660.11,491.68"/>
    </edge>
    <edge id=":1356130749_0" function="internal">
        <lane id=":1356130749_0_0" index="0" allow="delivery" speed="5.56" length="4.67" shape="590.71,579.41 591.57,578.25 592.39,577.89 593.17,578.33 593.91,579.57"/>
    </edge>
    <edge id=":1356130757_0" function="internal">
        <lane id=":1356130757_0_0" index="0" allow="pedestrian" speed="8.33" length="5.03" shape="546.00,571.83 545.77,570.46 545.16,569.51 544.16,568.97 542.79,568.84"/>
    </edge>
    <edge id=":1356130757_1" function="internal">
        <lane id=":1356130757_1_0" index="0" speed="8.33" length="9.42" shape="546.00,571.83 545.72,562.41"/>
    </edge>
    <edge id=":1356130757_2" function="internal">
        <lane id=":1356130757_2_0" index="0" speed="8.33" length="1.44" shape="546.00,571.83 546.77,570.61"/>
    </edge>
    <edge id=":1356130757_9" function="internal">
        <lane id=":1356130757_9_0" index="0" speed="8.33" length="3.23" shape="546.77,570.61 547.56,570.19 548.37,570.57 549.19,571.75"/>
    </edge>
    <edge id=":1356130757_3" function="internal">
        <lane id=":1356130757_3_0" index="0" speed="8.33" length="9.45" shape="548.92,562.30 549.19,571.75"/>
    </edge>
    <edge id=":1356130757_4" function="internal">
        <lane id=":1356130757_4_0" index="0" allow="pedestrian" speed="8.33" length="3.27" shape="548.92,562.30 548.62,565.05 548.37,565.49"/>
    </edge>
    <edge id=":1356130757_5" function="internal">
        <lane id=":1356130757_5_0" index="0" speed="8.33" length="1.44" shape="548.92,562.30 548.16,563.53"/>
    </edge>
    <edge id=":1356130757_10" function="internal">
        <lane id=":1356130757_10_0" index="0" allow="pedestrian" speed="8.33" length="6.92" shape="548.37,565.49 547.49,567.06 545.55,568.32 542.79,568.84"/>
    </edge>
    <edge id=":1356130757_11" function="internal">
        <lane id=":1356130757_11_0" index="0" speed="8.33" length="3.23" shape="548.16,563.53 547.38,563.96 546.56,563.59 545.72,562.41"/>
    </edge>
    <edge id=":1356130757_6" function="internal">
        <lane id=":1356130757_6_0" index="0" allow="pedestrian" speed="8.33" length="5.07" shape="542.64,565.64 544.03,565.38 545.00,564.76 545.57,563.77 545.72,562.41"/>
    </edge>
    <edge id=":1356130757_7" function="internal">
        <lane id=":1356130757_7_0" index="0" allow="pedestrian" speed="8.33" length="10.27" shape="542.64,565.64 545.45,565.91 547.48,567.02 548.73,568.97 549.19,571.75"/>
    </edge>
    <edge id=":1356130757_8" function="internal">
        <lane id=":1356130757_8_0" index="0" allow="pedestrian" speed="8.33" length="4.67" shape="542.64,565.64 543.88,566.38 544.31,567.16 543.95,567.98 542.79,568.84"/>
    </edge>
    <edge id=":1356130762_0" function="internal">
        <lane id=":1356130762_0_0" index="0" allow="pedestrian" speed="8.33" length="4.67" shape="529.49,569.53 528.25,568.80 527.80,568.02 528.16,567.20 529.31,566.33"/>
    </edge>
    <edge id=":1356130767_0" function="internal">
        <lane id=":1356130767_0_0" index="0" allow="delivery" speed="5.56" length="4.67" shape="650.75,563.76 649.85,562.63 649.70,561.75 650.32,561.11 651.71,560.70"/>
    </edge>
    <edge id=":1356130769_0" function="internal">
        <lane id=":1356130769_0_0" index="0" allow="delivery" speed="9.72" length="5.18" shape="684.31,570.91 685.76,571.17 686.94,570.94 687.85,570.23 688.49,569.03"/>
    </edge>
    <edge id=":1356130769_1" function="internal">
        <lane id=":1356130769_1_0" index="0" allow="delivery" speed="5.56" length="4.67" shape="684.31,570.91 685.22,572.03 685.36,572.92 684.74,573.56 683.36,573.97"/>
    </edge>
    <edge id=":1356130769_2" function="internal">
        <lane id=":1356130769_2_0" index="0" allow="delivery" speed="9.72" length="5.06" shape="685.29,577.90 685.58,576.53 685.36,575.42 684.61,574.57 683.36,573.97"/>
    </edge>
    <edge id=":1356130769_3" function="internal">
        <lane id=":1356130769_3_0" index="0" speed="13.89" length="9.44" shape="685.29,577.90 688.49,569.03"/>
        <lane id=":1356130769_3_1" index="1" speed="13.89" length="9.44" shape="688.30,579.00 691.51,570.10"/>
    </edge>
    <edge id=":1356135510_0" function="internal">
        <lane id=":1356135510_0_0" index="0" allow="delivery" speed="5.56" length="4.67" shape="482.34,787.45 483.34,786.41 484.20,786.15 484.92,786.69 485.50,788.01"/>
    </edge>
    <edge id=":1356135514_0" function="internal">
        <lane id=":1356135514_0_0" index="0" speed="8.33" length="9.40" shape="494.83,848.22 485.55,846.72"/>
    </edge>
    <edge id=":1356135514_1" function="internal">
        <lane id=":1356135514_1_0" index="0" allow="pedestrian" speed="8.33" length="3.28" shape="494.83,848.22 492.14,847.38 491.79,847.08"/>
    </edge>
    <edge id=":1356135514_2" function="internal">
        <lane id=":1356135514_2_0" index="0" speed="8.33" length="1.44" shape="494.83,848.22 493.77,847.24"/>
    </edge>
    <edge id=":1356135514_9" function="internal">
        <lane id=":1356135514_9_0" index="0" allow="pedestrian" speed="8.33" length="6.98" shape="491.79,847.08 490.38,845.88 489.55,843.72 489.66,840.90"/>
    </edge>
    <edge id=":1356135514_10" function="internal">
        <lane id=":1356135514_10_0" index="0" speed="8.33" length="3.23" shape="493.77,847.24 493.51,846.39 494.03,845.66 495.34,845.06"/>
    </edge>
    <edge id=":1356135514_3" function="internal">
        <lane id=":1356135514_3_0" index="0" allow="pedestrian" speed="8.33" length="5.02" shape="492.81,841.48 492.76,842.86 493.16,843.92 494.02,844.65 495.34,845.06"/>
    </edge>
    <edge id=":1356135514_4" function="internal">
        <lane id=":1356135514_4_0" index="0" allow="pedestrian" speed="8.33" length="10.17" shape="492.81,841.48 491.93,844.14 490.43,845.90 488.30,846.76 485.55,846.72"/>
    </edge>
    <edge id=":1356135514_5" function="internal">
        <lane id=":1356135514_5_0" index="0" allow="pedestrian" speed="8.33" length="4.67" shape="492.81,841.48 491.81,842.52 490.95,842.77 490.23,842.23 489.66,840.90"/>
    </edge>
    <edge id=":1356135514_6" function="internal">
        <lane id=":1356135514_6_0" index="0" allow="pedestrian" speed="8.33" length="5.08" shape="486.06,843.56 487.42,843.58 488.47,843.14 489.22,842.25 489.66,840.90"/>
    </edge>
    <edge id=":1356135514_7" function="internal">
        <lane id=":1356135514_7_0" index="0" speed="8.33" length="9.40" shape="486.06,843.56 495.34,845.06"/>
    </edge>
    <edge id=":1356135514_8" function="internal">
        <lane id=":1356135514_8_0" index="0" speed="8.33" length="1.44" shape="486.06,843.56 487.12,844.54"/>
    </edge>
    <edge id=":1356135514_11" function="internal">
        <lane id=":1356135514_11_0" index="0" speed="8.33" length="3.23" shape="487.12,844.54 487.38,845.40 486.86,846.12 485.55,846.72"/>
    </edge>
    <edge id=":1356135515_0" function="internal">
        <lane id=":1356135515_0_0" index="0" allow="delivery" speed="5.56" length="9.40" shape="520.28,829.93 518.92,839.22"/>
    </edge>
    <edge id=":1356135515_1" function="internal">
        <lane id=":1356135515_1_0" index="0" allow="delivery" speed="5.56" length="10.16" shape="520.28,829.93 519.49,832.59 518.04,834.36 515.92,835.25 513.13,835.25"/>
    </edge>
    <edge id=":1356135515_2" function="internal">
        <lane id=":1356135515_2_0" index="0" allow="delivery" speed="5.56" length="4.67" shape="520.28,829.93 519.32,831.00 518.47,831.28 517.73,830.77 517.12,829.46"/>
    </edge>
    <edge id=":1356135515_3" function="internal">
        <lane id=":1356135515_3_0" index="0" allow="delivery" speed="5.56" length="5.02" shape="513.58,832.09 514.96,832.09 516.01,831.65 516.73,830.77 517.12,829.46"/>
    </edge>
    <edge id=":1356135515_4" function="internal">
        <lane id=":1356135515_4_0" index="0" allow="delivery" speed="5.56" length="10.18" shape="513.58,832.09 516.26,832.86 518.04,834.31 518.93,836.43 518.92,839.22"/>
    </edge>
    <edge id=":1356135515_5" function="internal">
        <lane id=":1356135515_5_0" index="0" allow="delivery" speed="5.56" length="4.67" shape="513.58,832.09 514.65,833.05 514.94,833.89 514.43,834.63 513.13,835.25"/>
    </edge>
    <edge id=":1356135515_6" function="internal">
        <lane id=":1356135515_6_0" index="0" allow="delivery" speed="5.56" length="5.00" shape="515.76,838.76 515.76,837.39 515.32,836.35 514.45,835.64 513.13,835.25"/>
    </edge>
    <edge id=":1356135515_7" function="internal">
        <lane id=":1356135515_7_0" index="0" allow="delivery" speed="5.56" length="9.40" shape="515.76,838.76 517.12,829.46"/>
    </edge>
    <edge id=":1356135515_8" function="internal">
        <lane id=":1356135515_8_0" index="0" allow="delivery" speed="5.56" length="4.67" shape="515.76,838.76 516.72,837.69 517.57,837.41 518.31,837.92 518.92,839.22"/>
    </edge>
    <edge id=":1356135516_0" function="internal">
        <lane id=":1356135516_0_0" index="0" allow="delivery" speed="5.56" length="9.41" shape="497.54,833.05 488.22,831.73"/>
    </edge>
    <edge id=":1356135516_1" function="internal">
        <lane id=":1356135516_1_0" index="0" allow="delivery" speed="5.56" length="4.67" shape="497.54,833.05 496.47,832.09 496.18,831.24 496.69,830.50 497.99,829.88"/>
    </edge>
    <edge id=":1356135516_2" function="internal">
        <lane id=":1356135516_2_0" index="0" allow="delivery" speed="5.56" length="9.41" shape="488.67,828.56 497.99,829.88"/>
    </edge>
    <edge id=":1356135516_3" function="internal">
        <lane id=":1356135516_3_0" index="0" allow="delivery" speed="5.56" length="4.67" shape="488.67,828.56 489.75,829.52 490.03,830.37 489.52,831.10 488.22,831.73"/>
    </edge>
    <edge id=":1356135516_4" function="internal">
        <lane id=":1356135516_4_0" index="0" allow="pedestrian" speed="8.33" length="4.67" shape="490.75,835.31 491.78,834.30 492.64,834.06 493.35,834.62 493.89,835.95"/>
    </edge>
    <edge id=":1367507446_0" function="internal">
        <lane id=":1367507446_0_0" index="0" allow="delivery" speed="5.56" length="4.67" shape="588.24,674.17 589.47,674.92 589.90,675.71 589.53,676.52 588.36,677.37"/>
    </edge>
    <edge id=":1367507447_0" function="internal">
        <lane id=":1367507447_0_0" index="0" speed="8.33" length="9.40" shape="549.28,681.96 548.91,672.57"/>
    </edge>
    <edge id=":1367507447_1" function="internal">
        <lane id=":1367507447_1_0" index="0" allow="delivery" speed="6.95" length="3.27" shape="549.28,681.96 549.56,679.19 549.79,678.77"/>
    </edge>
    <edge id=":1367507447_2" function="internal">
        <lane id=":1367507447_2_0" index="0" speed="8.33" length="1.44" shape="549.28,681.96 550.03,680.73"/>
    </edge>
    <edge id=":1367507447_9" function="internal">
        <lane id=":1367507447_9_0" index="0" allow="delivery" speed="6.95" length="6.90" shape="549.79,678.77 550.67,677.18 552.59,675.92 555.33,675.42"/>
    </edge>
    <edge id=":1367507447_10" function="internal">
        <lane id=":1367507447_10_0" index="0" speed="8.33" length="3.23" shape="550.03,680.73 550.81,680.30 551.63,680.67 552.47,681.84"/>
    </edge>
    <edge id=":1367507447_3" function="internal">
        <lane id=":1367507447_3_0" index="0" allow="delivery" speed="6.95" length="5.00" shape="555.45,678.62 554.10,678.87 553.16,679.48 552.61,680.47 552.47,681.84"/>
    </edge>
    <edge id=":1367507447_4" function="internal">
        <lane id=":1367507447_4_0" index="0" allow="delivery" speed="6.95" length="10.16" shape="555.45,678.62 552.68,678.33 550.67,677.23 549.41,675.31 548.91,672.57"/>
    </edge>
    <edge id=":1367507447_5" function="internal">
        <lane id=":1367507447_5_0" index="0" allow="delivery" speed="5.56" length="4.67" shape="555.45,678.62 554.22,677.87 553.79,677.08 554.16,676.27 555.33,675.42"/>
    </edge>
    <edge id=":1367507447_6" function="internal">
        <lane id=":1367507447_6_0" index="0" allow="delivery" speed="6.95" length="5.01" shape="552.10,672.45 552.35,673.79 552.97,674.74 553.96,675.28 555.33,675.42"/>
    </edge>
    <edge id=":1367507447_7" function="internal">
        <lane id=":1367507447_7_0" index="0" speed="8.33" length="9.40" shape="552.10,672.45 552.47,681.84"/>
    </edge>
    <edge id=":1367507447_8" function="internal">
        <lane id=":1367507447_8_0" index="0" speed="8.33" length="1.44" shape="552.10,672.45 551.35,673.68"/>
    </edge>
    <edge id=":1367507447_11" function="internal">
        <lane id=":1367507447_11_0" index="0" speed="8.33" length="3.23" shape="551.35,673.68 550.57,674.11 549.75,673.74 548.91,672.57"/>
    </edge>
    <edge id=":1424270250_0" function="internal">
        <lane id=":1424270250_0_0" index="0" speed="13.89" length="9.51" shape="797.40,928.66 794.32,937.65"/>
    </edge>
    <edge id=":1424270250_1" function="internal">
        <lane id=":1424270250_1_0" index="0" allow="pedestrian" speed="11.11" length="3.27" shape="797.40,928.66 796.17,931.11 795.77,931.45"/>
    </edge>
    <edge id=":1424270250_2" function="internal">
        <lane id=":1424270250_2_0" index="0" speed="13.89" length="1.44" shape="797.40,928.66 796.26,929.55"/>
    </edge>
    <edge id=":1424270250_9" function="internal">
        <lane id=":1424270250_9_0" index="0" allow="pedestrian" speed="11.11" length="6.96" shape="795.77,931.45 794.41,932.60 792.13,933.12 789.33,932.67"/>
    </edge>
    <edge id=":1424270250_10" function="internal">
        <lane id=":1424270250_10_0" index="0" speed="13.89" length="3.23" shape="796.26,929.55 795.38,929.67 794.75,929.04 794.36,927.65"/>
    </edge>
    <edge id=":1424270250_3" function="internal">
        <lane id=":1424270250_3_0" index="0" allow="pedestrian" speed="11.11" length="5.15" shape="790.26,929.61 791.70,929.84 792.86,929.60 793.75,928.87 794.36,927.65"/>
    </edge>
    <edge id=":1424270250_4" function="internal">
        <lane id=":1424270250_4_0" index="0" allow="pedestrian" speed="11.11" length="10.38" shape="790.26,929.61 792.85,930.82 794.39,932.57 794.88,934.84 794.32,937.65"/>
    </edge>
    <edge id=":1424270250_5" function="internal">
        <lane id=":1424270250_5_0" index="0" allow="pedestrian" speed="8.33" length="4.67" shape="790.26,929.61 791.18,930.72 791.33,931.60 790.71,932.25 789.33,932.67"/>
    </edge>
    <edge id=":1424270250_6" function="internal">
        <lane id=":1424270250_6_0" index="0" allow="pedestrian" speed="11.11" length="5.05" shape="791.30,936.58 791.58,935.22 791.34,934.11 790.59,933.26 789.33,932.67"/>
    </edge>
    <edge id=":1424270250_7" function="internal">
        <lane id=":1424270250_7_0" index="0" speed="13.89" length="9.44" shape="791.30,936.58 794.36,927.65"/>
    </edge>
    <edge id=":1424270250_8" function="internal">
        <lane id=":1424270250_8_0" index="0" speed="13.89" length="1.44" shape="791.30,936.58 792.46,935.72"/>
    </edge>
    <edge id=":1424270250_11" function="internal">
        <lane id=":1424270250_11_0" index="0" speed="13.89" length="3.23" shape="792.46,935.72 793.35,935.61 793.97,936.25 794.32,937.65"/>
    </edge>
    <edge id=":1424270251_0" function="internal">
        <lane id=":1424270251_0_0" index="0" allow="delivery" speed="5.56" length="13.50" shape="728.31,920.61 720.91,909.31"/>
    </edge>
    <edge id=":1424270251_1" function="internal">
        <lane id=":1424270251_1_0" index="0" allow="delivery" speed="5.56" length="4.67" shape="728.31,920.61 728.29,919.16 728.73,918.38 729.62,918.26 730.95,918.81"/>
    </edge>
    <edge id=":1424270251_2" function="internal">
        <lane id=":1424270251_2_0" index="0" allow="pedestrian" speed="8.33" length="4.67" shape="733.33,915.57 732.42,914.46 732.27,913.58 732.89,912.93 734.27,912.51"/>
    </edge>
    <edge id=":1424270251_3" function="internal">
        <lane id=":1424270251_3_0" index="0" allow="delivery" speed="5.56" length="13.23" shape="723.70,907.74 730.95,918.81"/>
    </edge>
    <edge id=":1424270251_4" function="internal">
        <lane id=":1424270251_4_0" index="0" allow="delivery" speed="5.56" length="4.67" shape="723.70,907.74 723.59,909.18 723.09,909.92 722.20,909.96 720.91,909.31"/>
    </edge>
    <edge id=":1424274807_0" function="internal">
        <lane id=":1424274807_0_0" index="0" allow="delivery" speed="9.72" length="3.69" shape="847.92,785.78 846.60,785.41 845.60,785.33 844.91,785.53 844.55,786.01"/>
    </edge>
    <edge id=":1424274807_1" function="internal">
        <lane id=":1424274807_1_0" index="0" allow="delivery" speed="9.72" length="10.16" shape="847.92,785.78 845.42,784.51 843.91,782.75 843.38,780.52 843.84,777.81"/>
    </edge>
    <edge id=":1424274807_2" function="internal">
        <lane id=":1424274807_2_0" index="0" allow="delivery" speed="5.56" length="4.67" shape="847.92,785.78 847.05,784.63 846.93,783.75 847.57,783.12 848.97,782.76"/>
    </edge>
    <edge id=":1424274807_3" function="internal">
        <lane id=":1424274807_3_0" index="0" allow="delivery" speed="9.72" length="5.08" shape="846.89,778.79 846.66,780.14 846.94,781.24 847.70,782.12 848.97,782.76"/>
    </edge>
    <edge id=":1424274807_4" function="internal">
        <lane id=":1424274807_4_0" index="0" speed="13.89" length="7.59" shape="846.89,778.79 844.55,786.01"/>
    </edge>
    <edge id=":1424274807_5" function="internal">
        <lane id=":1424274807_5_0" index="0" speed="13.89" length="1.44" shape="846.89,778.79 845.76,779.69"/>
    </edge>
    <edge id=":1424274807_9" function="internal">
        <lane id=":1424274807_9_0" index="0" speed="13.89" length="3.23" shape="845.76,779.69 844.87,779.82 844.23,779.20 843.84,777.81"/>
    </edge>
    <edge id=":1424274807_6" function="internal">
        <lane id=":1424274807_6_0" index="0" speed="13.89" length="7.58" shape="841.51,785.02 843.84,777.81"/>
    </edge>
    <edge id=":1424274807_7" function="internal">
        <lane id=":1424274807_7_0" index="0" allow="delivery" speed="9.72" length="2.36" shape="841.51,785.02 842.50,783.25 842.78,783.08"/>
    </edge>
    <edge id=":1424274807_8" function="internal">
        <lane id=":1424274807_8_0" index="0" speed="13.89" length="1.44" shape="841.51,785.02 842.64,784.13"/>
    </edge>
    <edge id=":1424274807_10" function="internal">
        <lane id=":1424274807_10_0" index="0" allow="delivery" speed="9.72" length="6.49" shape="842.78,783.08 844.08,782.28 846.23,782.11 848.97,782.76"/>
    </edge>
    <edge id=":1424274807_11" function="internal">
        <lane id=":1424274807_11_0" index="0" speed="13.89" length="3.23" shape="842.64,784.13 843.52,784.00 844.16,784.62 844.55,786.01"/>
    </edge>
    <edge id=":1424274808_0" function="internal">
        <lane id=":1424274808_0_0" index="0" allow="delivery" speed="5.56" length="4.67" shape="889.34,768.29 890.47,767.38 891.35,767.24 892.00,767.87 892.40,769.25"/>
    </edge>
    <edge id=":1476473555_0" function="internal">
        <lane id=":1476473555_0_0" index="0" allow="delivery" speed="5.56" length="4.67" shape="598.31,826.95 599.50,827.78 599.88,828.58 599.46,829.38 598.25,830.15"/>
    </edge>
    <edge id=":1476473559_0" function="internal">
        <lane id=":1476473559_0_0" index="0" speed="8.33" length="9.50" shape="567.95,816.90 564.79,807.94"/>
    </edge>
    <edge id=":1476473559_1" function="internal">
        <lane id=":1476473559_1_0" index="0" allow="delivery" speed="6.95" length="3.90" shape="567.95,816.90 567.17,813.37 567.25,813.09"/>
    </edge>
    <edge id=":1476473559_2" function="internal">
        <lane id=":1476473559_2_0" index="0" speed="8.33" length="1.44" shape="567.95,816.90 568.28,815.50"/>
    </edge>
    <edge id=":1476473559_9" function="internal">
        <lane id=":1476473559_9_0" index="0" allow="delivery" speed="6.95" length="8.47" shape="567.25,813.09 567.85,810.89 569.99,809.46 573.59,809.08"/>
    </edge>
    <edge id=":1476473559_10" function="internal">
        <lane id=":1476473559_10_0" index="0" speed="8.33" length="3.23" shape="568.28,815.50 568.90,814.84 569.78,814.94 570.95,815.79"/>
    </edge>
    <edge id=":1476473559_3" function="internal">
        <lane id=":1476473559_3_0" index="0" allow="delivery" speed="6.95" length="5.56" shape="573.48,812.27 571.87,812.45 570.91,813.09 570.60,814.20 570.95,815.79"/>
    </edge>
    <edge id=":1476473559_4" function="internal">
        <lane id=":1476473559_4_0" index="0" allow="delivery" speed="6.95" length="10.33" shape="573.48,812.27 570.17,811.91 567.61,811.07 565.82,809.75 564.79,807.94"/>
    </edge>
    <edge id=":1476473559_5" function="internal">
        <lane id=":1476473559_5_0" index="0" allow="delivery" speed="5.56" length="4.67" shape="573.48,812.27 572.31,811.43 571.93,810.62 572.36,809.84 573.59,809.08"/>
    </edge>
    <edge id=":1476473559_6" function="internal">
        <lane id=":1476473559_6_0" index="0" allow="delivery" speed="6.95" length="6.42" shape="567.84,806.98 568.43,807.83 569.58,808.47 571.30,808.88 573.59,809.08"/>
    </edge>
    <edge id=":1476473559_7" function="internal">
        <lane id=":1476473559_7_0" index="0" speed="8.33" length="9.35" shape="567.84,806.98 570.95,815.79"/>
    </edge>
    <edge id=":1476473559_8" function="internal">
        <lane id=":1476473559_8_0" index="0" speed="8.33" length="1.44" shape="567.84,806.98 567.44,808.36"/>
    </edge>
    <edge id=":1476473559_11" function="internal">
        <lane id=":1476473559_11_0" index="0" speed="8.33" length="3.23" shape="567.44,808.36 566.80,808.98 565.91,808.84 564.79,807.94"/>
    </edge>
    <edge id=":1476473561_0" function="internal">
        <lane id=":1476473561_0_0" index="0" allow="delivery" speed="5.56" length="4.67" shape="599.17,809.91 600.35,810.75 600.72,811.56 600.29,812.35 599.07,813.11"/>
    </edge>
    <edge id=":1476473564_0" function="internal">
        <lane id=":1476473564_0_0" index="0" speed="8.33" length="9.83" shape="574.39,834.37 571.01,825.13"/>
    </edge>
    <edge id=":1476473564_1" function="internal">
        <lane id=":1476473564_1_0" index="0" allow="delivery" speed="6.95" length="3.74" shape="574.39,834.37 573.65,830.88 573.70,830.71"/>
    </edge>
    <edge id=":1476473564_2" function="internal">
        <lane id=":1476473564_2_0" index="0" speed="8.33" length="1.44" shape="574.39,834.37 574.73,832.96"/>
    </edge>
    <edge id=":1476473564_9" function="internal">
        <lane id=":1476473564_9_0" index="0" allow="delivery" speed="6.95" length="8.50" shape="573.70,830.71 574.34,828.41 576.45,826.97 579.99,826.55"/>
    </edge>
    <edge id=":1476473564_10" function="internal">
        <lane id=":1476473564_10_0" index="0" speed="8.33" length="3.23" shape="574.73,832.96 575.35,832.32 576.23,832.42 577.40,833.28"/>
    </edge>
    <edge id=":1476473564_3" function="internal">
        <lane id=":1476473564_3_0" index="0" allow="delivery" speed="6.95" length="5.52" shape="579.92,829.75 578.33,829.94 577.37,830.59 577.06,831.70 577.40,833.28"/>
    </edge>
    <edge id=":1476473564_4" function="internal">
        <lane id=":1476473564_4_0" index="0" allow="delivery" speed="6.95" length="10.67" shape="579.92,829.75 576.65,829.41 574.07,828.52 572.19,827.10 571.01,825.13"/>
    </edge>
    <edge id=":1476473564_5" function="internal">
        <lane id=":1476473564_5_0" index="0" allow="delivery" speed="5.56" length="4.67" shape="579.92,829.75 578.74,828.93 578.36,828.12 578.78,827.33 579.99,826.55"/>
    </edge>
    <edge id=":1476473564_6" function="internal">
        <lane id=":1476473564_6_0" index="0" allow="delivery" speed="6.95" length="6.85" shape="574.01,824.02 574.72,825.09 575.96,825.87 577.71,826.35 579.99,826.55"/>
    </edge>
    <edge id=":1476473564_7" function="internal">
        <lane id=":1476473564_7_0" index="0" speed="8.33" length="9.86" shape="574.01,824.02 577.40,833.28"/>
    </edge>
    <edge id=":1476473564_8" function="internal">
        <lane id=":1476473564_8_0" index="0" speed="8.33" length="1.44" shape="574.01,824.02 573.68,825.42"/>
    </edge>
    <edge id=":1476473564_11" function="internal">
        <lane id=":1476473564_11_0" index="0" speed="8.33" length="3.23" shape="573.68,825.42 573.07,826.08 572.18,825.98 571.01,825.13"/>
    </edge>
    <edge id=":1497216949_0" function="internal">
        <lane id=":1497216949_0_0" index="0" allow="delivery" speed="5.56" length="4.67" shape="1018.54,459.75 1019.18,461.04 1019.13,461.94 1018.38,462.43 1016.94,462.53"/>
    </edge>
    <edge id=":1497216952_0" function="internal">
        <lane id=":1497216952_0_0" index="0" allow="delivery" speed="5.56" length="4.67" shape="1010.83,483.86 1011.44,485.17 1011.37,486.06 1010.61,486.54 1009.17,486.60"/>
    </edge>
    <edge id=":1713349266_0" function="internal">
        <lane id=":1713349266_0_0" index="0" allow="rail_urban" speed="27.78" length="0.10" shape="762.09,329.80 762.09,329.80"/>
        <lane id=":1713349266_0_1" index="1" allow="rail_urban" speed="27.78" length="0.10" shape="760.21,332.40 760.21,332.40"/>
    </edge>
    <edge id=":1757034233_0" function="internal">