<?xml version="1.0" encoding="UTF-8"?>

<!-- generated on 2025-02-05 23:51:39 by Eclipse SUMO netconvert Version 1.19.0
<configuration xmlns:xsi="http://www.w3.org/2001/XMLSchema-instance" xsi:noNamespaceSchemaLocation="http://sumo.dlr.de/xsd/netconvertConfiguration.xsd">

    <input>
        <sumo-net-file value="eichwalde.net.xml"/>
    </input>

    <output>
        <plain-output-prefix value="eichwalde"/>
        <output.street-names value="true"/>
    </output>

    <processing>
        <geometry.min-radius.fix.railways value="false"/>
        <geometry.max-grade.fix value="false"/>
        <offset.disable-normalization value="true"/>
        <lefthand value="0"/>
    </processing>

    <junctions>
        <no-turnarounds value="true"/>
        <junctions.corner-detail value="5"/>
        <junctions.limit-turn-speed value="5.50"/>
        <rectangular-lane-cut value="0"/>
    </junctions>

    <pedestrian>
        <walkingareas value="0"/>
    </pedestrian>

</configuration>
-->

<nodes version="1.16" xmlns:xsi="http://www.w3.org/2001/XMLSchema-instance" xsi:noNamespaceSchemaLocation="http://sumo.dlr.de/xsd/nodes_file.xsd">
    <location netOffset="-398875.31,-5796724.42" convBoundary="0.00,0.00,13578.29,13888.38" origBoundary="13.513926,52.307148,13.715296,52.437209" projParameter="+proj=utm +zone=33 +ellps=WGS84 +datum=WGS84 +units=m +no_defs"/>

    <node id="1005393411" x="10508.16" y="2716.06" type="right_before_left"/>
    <node id="101971584" x="9155.68" y="7352.06" type="priority">
        <param key="buffer_stop" value="true"/>
    </node>
    <node id="101971587" x="9195.08" y="7364.47" type="right_before_left"/>
    <node id="101971598" x="9229.77" y="7254.56" type="right_before_left"/>
    <node id="101971604" x="9259.67" y="7162.58" type="right_before_left"/>
    <node id="1020861965" x="12327.22" y="6581.90" type="priority"/>
    <node id="1020861980" x="12395.86" y="6535.81" type="dead_end"/>
    <node id="1020862147" x="12316.47" y="6559.87" type="right_before_left"/>
    <node id="1020862157" x="12360.79" y="6553.14" type="dead_end"/>
    <node id="1037026456" x="6910.03" y="6453.23" type="priority"/>
    <node id="1049430713" x="5507.93" y="11023.40" type="dead_end"/>
    <node id="1049430840" x="5517.25" y="11023.76" type="dead_end"/>
    <node id="1051302891" x="4769.41" y="11703.87" type="dead_end"/>
    <node id="1051408399" x="5960.84" y="10940.87" type="dead_end"/>
    <node id="1056623262" x="9940.75" y="10945.87" type="priority"/>
    <node id="1056623269" x="9974.36" y="10982.96" type="priority"/>
    <node id="1056623280" x="10020.59" y="10921.53" type="priority"/>
    <node id="1056623284" x="10046.74" y="11066.11" type="priority"/>
    <node id="1088296708" x="7368.58" y="7769.37" type="priority"/>
    <node id="1088296711" x="7621.67" y="7911.04" type="right_before_left"/>
    <node id="1088296714" x="7534.60" y="7899.69" type="priority"/>
    <node id="1088296717" x="6981.13" y="7719.32" type="right_before_left"/>
    <node id="1088296737" x="7457.54" y="7817.92" type="dead_end"/>
    <node id="1088296740" x="7480.85" y="7833.05" type="priority"/>
    <node id="1088296741" x="7081.86" y="7632.13" type="right_before_left"/>
    <node id="1134373777" x="4480.30" y="11324.06" type="right_before_left"/>
    <node id="1134388327" x="4682.03" y="11033.87" type="priority"/>
    <node id="1138525248" x="10361.59" y="2849.15" type="right_before_left"/>
    <node id="1138525270" x="10462.33" y="3083.35" type="dead_end"/>
    <node id="1138525275" x="10374.61" y="3086.98" type="dead_end"/>
    <node id="1138525288" x="10484.40" y="3063.52" type="dead_end"/>
    <node id="1138525328" x="10271.37" y="2935.81" type="right_before_left"/>
    <node id="1138525329" x="10595.17" y="2876.46" type="right_before_left"/>
    <node id="1138525339" x="10414.10" y="2758.36" type="priority"/>
    <node id="1138525362" x="10417.17" y="2798.68" type="right_before_left"/>
    <node id="1138525377" x="10439.44" y="3018.47" type="priority"/>
    <node id="1138525389" x="10243.08" y="2842.59" type="dead_end"/>
    <node id="1138525410" x="10476.46" y="2744.85" type="right_before_left"/>
    <node id="1138525437" x="10352.02" y="3099.13" type="priority"/>
    <node id="1138525438" x="10488.34" y="3060.62" type="dead_end"/>
    <node id="1138525449" x="9987.75" y="2832.22" type="priority"/>
    <node id="1138525451" x="10480.66" y="3066.17" type="dead_end"/>
    <node id="1138525455" x="10270.45" y="2817.84" type="dead_end"/>
    <node id="1152870736" x="5179.78" y="7733.30" type="priority"/>
    <node id="1152870743" x="5282.13" y="7773.11" type="priority"/>
    <node id="1165759192" x="4803.88" y="10986.38" type="right_before_left"/>
    <node id="1183363818" x="12327.78" y="6779.18" type="priority"/>
    <node id="1183363830" x="12368.15" y="6823.15" type="priority"/>
    <node id="123139240" x="8145.30" y="8171.30" type="priority"/>
    <node id="123139267" x="8233.56" y="8693.84" type="priority"/>
    <node id="1234119959" x="3832.16" y="6978.71" type="priority"/>
    <node id="1234120045" x="6779.03" y="6634.19" type="priority"/>
    <node id="1234120112" x="5647.99" y="7501.71" type="priority"/>
    <node id="1234120169" x="5105.25" y="5628.02" type="priority"/>
    <node id="1234120178" x="5474.93" y="7622.06" type="priority"/>
    <node id="1234120200" x="6412.21" y="5844.66" type="priority"/>
    <node id="1234120227" x="4838.06" y="7434.32" type="priority"/>
    <node id="1234120228" x="4889.11" y="5433.50" type="priority"/>
    <node id="1234120243" x="4753.50" y="5323.32" type="priority"/>
    <node id="1234120250" x="3365.72" y="6488.31" type="priority"/>
    <node id="1234120271" x="3469.50" y="6601.73" type="priority"/>
    <node id="1234120274" x="5242.50" y="6282.34" type="priority"/>
    <node id="1234120294" x="5642.57" y="7527.03" type="priority"/>
    <node id="1234120307" x="6119.06" y="6739.36" type="priority"/>
    <node id="1234120350" x="6406.34" y="5825.37" type="priority"/>
    <node id="1234120351" x="5094.04" y="5617.65" type="priority"/>
    <node id="1234120354" x="6365.55" y="5988.10" type="priority"/>
    <node id="1234120362" x="5377.93" y="5722.94" type="dead_end"/>
    <node id="1234120372" x="4694.33" y="7384.27" type="priority"/>
    <node id="1234120384" x="5266.49" y="7511.13" type="right_before_left"/>
    <node id="1234120411" x="6169.87" y="6763.22" type="priority"/>
    <node id="1234120415" x="4990.14" y="7484.98" type="priority"/>
    <node id="1234120422" x="4302.28" y="5123.40" type="priority"/>
    <node id="1234120426" x="4097.86" y="5035.49" type="priority"/>
    <node id="1234643754" x="6657.10" y="3140.44" type="priority"/>
    <node id="1234643787" x="5872.32" y="3782.08" type="priority"/>
    <node id="1234643800" x="6268.30" y="3177.75" type="priority"/>
    <node id="1234643869" x="5928.88" y="2996.83" type="priority"/>
    <node id="1234643874" x="6227.01" y="2975.11" type="priority"/>
    <node id="1234643889" x="5566.06" y="2874.16" type="priority"/>
    <node id="1234643920" x="6664.27" y="3105.65" type="priority"/>
    <node id="1234643926" x="6116.46" y="2965.30" type="priority"/>
    <node id="1234643956" x="6558.46" y="3111.74" type="priority"/>
    <node id="1234643961" x="5903.79" y="3020.68" type="priority"/>
    <node id="1234643975" x="5395.69" y="4776.46" type="priority"/>
    <node id="1234643998" x="6638.61" y="3113.06" type="priority"/>
    <node id="1234644014" x="6047.81" y="3268.00" type="priority"/>
    <node id="1234644037" x="6342.77" y="2999.47" type="traffic_light" tl="1234644037" tlType="actuated"/>
    <node id="1234644045" x="8231.28" y="2895.91" type="priority"/>
    <node id="1234644127" x="5433.96" y="4720.17" type="priority"/>
    <node id="1234644140" x="5416.98" y="4744.67" type="priority"/>
    <node id="1234644182" x="6656.66" y="3108.00" type="priority"/>
    <node id="1234644198" x="6591.13" y="3121.87" type="priority"/>
    <node id="1234644205" x="5734.41" y="2959.88" type="priority"/>
    <node id="123618591" x="12937.97" y="3838.59" type="priority"/>
    <node id="1242393396" x="9206.17" y="6978.35" type="dead_end"/>
    <node id="1242393482" x="12210.07" y="5412.39" type="priority"/>
    <node id="1242393787" x="12374.94" y="5570.84" type="right_before_left"/>
    <node id="1242393868" x="8881.34" y="3843.40" type="right_before_left"/>
    <node id="1242394151" x="12487.37" y="5673.86" type="priority"/>
    <node id="1264267239" x="5132.89" y="11632.18" type="priority"/>
    <node id="1267994355" x="8796.95" y="7230.76" type="priority"/>
    <node id="1269445653" x="8522.70" y="10788.67" type="right_before_left"/>
    <node id="1269445657" x="8503.83" y="10798.45" type="priority"/>
    <node id="1276939194" x="3342.73" y="2748.87" type="priority"/>
    <node id="1278093745" x="10056.76" y="2917.02" type="dead_end"/>
    <node id="1283848506" x="3512.90" y="7402.26" type="priority"/>
    <node id="1283848508" x="3616.50" y="7806.17" type="priority"/>
    <node id="1286778964" x="7312.23" y="5293.17" type="priority"/>
    <node id="129373316" x="10703.70" y="3308.83" type="right_before_left"/>
    <node id="1311837410" x="6478.35" y="10252.07" type="right_before_left"/>
    <node id="1311837413" x="6278.94" y="10259.34" type="priority"/>
    <node id="1313547475" x="12119.08" y="5379.23" type="right_before_left"/>
    <node id="1313957443" x="9241.91" y="3360.49" type="priority"/>
    <node id="1313957509" x="9478.37" y="3747.56" type="priority"/>
    <node id="1313957512" x="9810.41" y="5227.78" type="right_before_left"/>
    <node id="1313957526" x="9851.26" y="5537.21" type="right_before_left"/>
    <node id="1313957528" x="9958.80" y="4591.40" type="priority"/>
    <node id="1313957552" x="9473.59" y="3778.20" type="right_before_left"/>
    <node id="1313957575" x="9849.21" y="4630.10" type="right_before_left"/>
    <node id="1313957583" x="9223.81" y="3867.60" type="right_before_left"/>
    <node id="1313957591" x="10213.89" y="5344.98" type="priority"/>
    <node id="1313957597" x="10468.42" y="5744.48" type="right_before_left"/>
    <node id="1313957598" x="9377.13" y="3982.66" type="right_before_left"/>
    <node id="1321896276" x="9252.61" y="11520.66" type="priority"/>
    <node id="1321920294" x="9125.51" y="11424.43" type="priority"/>
    <node id="1322375689" x="10560.42" y="11197.31" type="priority">
        <param key="buffer_stop" value="true"/>
    </node>
    <node id="1322375692" x="10626.97" y="11137.47" type="right_before_left"/>
    <node id="1324096340" x="5880.88" y="8790.03" type="priority"/>
    <node id="1330672881" x="9383.37" y="7470.75" type="priority">
        <param key="buffer_stop" value="true"/>
    </node>
    <node id="1330679707" x="8716.29" y="7848.67" type="right_before_left"/>
    <node id="1331577932" x="12304.33" y="6656.69" type="right_before_left"/>
    <node id="1331577933" x="12275.67" y="6605.31" type="right_before_left"/>
    <node id="1331577934" x="12265.88" y="6583.92" type="right_before_left"/>
    <node id="1331577935" x="12333.71" y="6643.10" type="priority"/>
    <node id="1331581478" x="12331.95" y="6607.23" type="dead_end"/>
    <node id="1331584183" x="12366.16" y="6502.04" type="dead_end"/>
    <node id="1335417716" x="8722.77" y="7165.67" type="priority"/>
    <node id="1338456788" x="7916.52" y="11248.02" type="priority"/>
    <node id="134057553" x="13578.29" y="1649.31" type="priority"/>
    <node id="1358358853" x="5892.26" y="10824.03" type="right_before_left"/>
    <node id="1358366721" x="5270.03" y="10567.89" type="dead_end"/>
    <node id="1358366722" x="5225.26" y="10579.02" type="dead_end"/>
    <node id="1358366726" x="5236.13" y="10592.44" type="dead_end"/>
    <node id="1358366728" x="5345.21" y="10706.14" type="priority"/>
    <node id="1358366730" x="5259.39" y="10554.14" type="dead_end"/>
    <node id="1358366735" x="5288.03" y="10593.04" type="dead_end"/>
    <node id="1358366776" x="5255.24" y="10617.85" type="dead_end"/>
    <node id="1358376279" x="5408.48" y="10791.69" type="priority"/>
    <node id="1358379758" x="4818.75" y="10747.71" type="priority"/>
    <node id="1358380089" x="4540.57" y="10807.79" type="right_before_left"/>
    <node id="1360591937" x="12110.65" y="6992.80" type="right_before_left"/>
    <node id="1360591945" x="12370.49" y="7395.34" type="right_before_left"/>
    <node id="1383533586" x="5118.47" y="10985.63" type="dead_end"/>
    <node id="1383533587" x="5085.19" y="11018.09" type="dead_end"/>
    <node id="1383533609" x="7692.34" y="4154.19" type="priority"/>
    <node id="1383533615" x="7996.36" y="9135.27" type="priority"/>
    <node id="1383533627" x="6203.11" y="10675.56" type="dead_end"/>
    <node id="1383533673" x="8364.28" y="6956.83" type="priority"/>
    <node id="1383533677" x="5182.81" y="10936.56" type="priority"/>
    <node id="1383533684" x="5131.42" y="10996.53" type="priority"/>
    <node id="1383533689" x="5089.48" y="11026.62" type="right_before_left"/>
    <node id="1388517327" x="11381.97" y="7109.75" type="right_before_left"/>
    <node id="1388517335" x="11228.52" y="7150.32" type="priority"/>
    <node id="1398803915" x="7008.64" y="6009.97" type="priority"/>
    <node id="1400047291" x="7823.77" y="4892.66" type="right_before_left"/>
    <node id="1400047294" x="7579.53" y="4935.11" type="right_before_left"/>
    <node id="1400047372" x="7593.19" y="4897.97" type="priority"/>
    <node id="1400047487" x="7589.61" y="4923.81" type="priority"/>
    <node id="1400047693" x="7595.94" y="4863.10" type="priority"/>
    <node id="1402093601" x="10465.79" y="9649.18" type="right_before_left"/>
    <node id="1402765763" x="10893.90" y="9603.28" type="right_before_left"/>
    <node id="1402765766" x="10709.81" y="8914.23" type="right_before_left"/>
    <node id="1402765883" x="10759.63" y="8913.32" type="right_before_left"/>
    <node id="1402765886" x="10763.93" y="9527.58" type="right_before_left"/>
    <node id="1403553705" x="7037.74" y="6039.15" type="priority"/>
    <node id="1408326288" x="8650.68" y="11480.68" type="dead_end"/>
    <node id="141200894" x="11210.91" y="2303.73" type="dead_end"/>
    <node id="1420459843" x="12443.16" y="7108.36" type="priority"/>
    <node id="1420459844" x="12557.33" y="7135.43" type="priority"/>
    <node id="1420459845" x="12456.05" y="7159.16" type="priority"/>
    <node id="1420459846" x="12563.71" y="7182.71" type="priority"/>
    <node id="143348392" x="11380.33" y="7060.23" type="priority"/>
    <node id="143348398" x="11178.01" y="7112.64" type="right_before_left"/>
    <node id="1435790376" x="8498.15" y="9539.31" type="dead_end"/>
    <node id="1436593642" x="7827.55" y="7862.27" type="right_before_left"/>
    <node id="1436593650" x="7714.58" y="7735.26" type="right_before_left"/>
    <node id="1436593664" x="7910.22" y="8020.51" type="right_before_left"/>
    <node id="1436593665" x="8007.74" y="7741.32" type="right_before_left"/>
    <node id="1436593667" x="8152.69" y="7630.99" type="right_before_left"/>
    <node id="1436593671" x="7886.62" y="7944.30" type="right_before_left"/>
    <node id="1436593672" x="8499.53" y="7293.34" type="priority"/>
    <node id="1436593681" x="7932.04" y="8003.36" type="right_before_left"/>
    <node id="1436593684" x="8012.28" y="7213.05" type="priority"/>
    <node id="1436593685" x="8083.93" y="7254.82" type="priority"/>
    <node id="1436593687" x="8314.95" y="7515.44" type="right_before_left"/>
    <node id="1436593688" x="8450.93" y="7351.56" type="right_before_left"/>
    <node id="1436593689" x="8372.98" y="7286.64" type="right_before_left"/>
    <node id="1436593692" x="8199.17" y="7410.36" type="priority"/>
    <node id="1436593693" x="7689.62" y="8111.08" type="priority"/>
    <node id="1436593694" x="8214.44" y="7424.21" type="priority"/>
    <node id="1436593695" x="8085.53" y="7584.36" type="right_before_left"/>
    <node id="1436593696" x="7871.48" y="7704.83" type="right_before_left"/>
    <node id="1436593699" x="7945.44" y="7658.58" type="right_before_left"/>
    <node id="1436593704" x="7832.57" y="7730.21" type="right_before_left"/>
    <node id="1436593710" x="7639.73" y="7878.81" type="right_before_left"/>
    <node id="1436593711" x="8710.97" y="7301.77" type="right_before_left"/>
    <node id="1436593712" x="8694.06" y="7340.40" type="priority"/>
    <node id="1474352400" x="5873.04" y="2959.28" type="right_before_left"/>
    <node id="1474352403" x="5896.79" y="2964.15" type="priority"/>
    <node id="1474352404" x="5862.65" y="2997.97" type="priority"/>
    <node id="1482460458" x="5293.38" y="5689.21" type="priority"/>
    <node id="1482460459" x="5308.13" y="5693.26" type="priority"/>
    <node id="1482460460" x="5291.13" y="5698.13" type="right_before_left"/>
    <node id="1482460461" x="5305.54" y="5702.25" type="dead_end"/>
    <node id="1482460462" x="5354.58" y="5705.98" type="priority"/>
    <node id="1482460463" x="5287.46" y="5711.64" type="right_before_left"/>
    <node id="1482460464" x="5375.18" y="5711.62" type="priority"/>
    <node id="1482460465" x="5351.85" y="5715.48" type="dead_end"/>
    <node id="1482460466" x="5305.11" y="5716.56" type="right_before_left"/>
    <node id="1482460467" x="5372.38" y="5721.36" type="dead_end"/>
    <node id="1482460468" x="5339.85" y="5726.23" type="right_before_left"/>
    <node id="1482460478" x="5457.05" y="5734.05" type="priority"/>
    <node id="1482460479" x="5422.44" y="5735.66" type="dead_end"/>
    <node id="1482460481" x="5468.57" y="5737.21" type="priority"/>
    <node id="1482460485" x="5334.98" y="5743.85" type="right_before_left"/>
    <node id="1482460487" x="5454.00" y="5744.68" type="dead_end"/>
    <node id="1482460503" x="5465.52" y="5747.98" type="priority"/>
    <node id="1482460504" x="5366.51" y="5752.50" type="right_before_left"/>
    <node id="1482460509" x="5462.20" y="5759.71" type="right_before_left"/>
    <node id="1482460525" x="5267.36" y="5794.89" type="right_before_left"/>
    <node id="1482460537" x="5383.36" y="5827.70" type="priority"/>
    <node id="1483484693" x="5332.96" y="6023.11" type="priority"/>
    <node id="148395353" x="10834.31" y="10845.78" type="right_before_left"/>
    <node id="1487455323" x="11152.16" y="5470.29" type="priority"/>
    <node id="1488649024" x="7970.19" y="11491.83" type="right_before_left"/>
    <node id="1488649032" x="7974.63" y="11508.01" type="right_before_left"/>
    <node id="148865572" x="10461.05" y="3002.50" type="priority"/>
    <node id="148865574" x="10475.62" y="2988.29" type="priority"/>
    <node id="1496233975" x="6212.62" y="4326.60" type="priority"/>
    <node id="1496233976" x="6268.46" y="4251.65" type="priority"/>
    <node id="1496233983" x="6333.05" y="4200.98" type="right_before_left"/>
    <node id="1496233987" x="6268.78" y="4344.25" type="priority"/>
    <node id="1496233989" x="6069.07" y="4488.09" type="right_before_left"/>
    <node id="1496233992" x="6352.83" y="4279.03" type="right_before_left"/>
    <node id="1496233994" x="5842.33" y="4844.79" type="priority"/>
    <node id="1496305759" x="5495.49" y="4830.94" type="priority"/>
    <node id="1496305769" x="4957.68" y="4538.83" type="priority"/>
    <node id="1496305771" x="5425.25" y="4732.60" type="right_before_left"/>
    <node id="1496305772" x="5120.26" y="4982.20" type="priority"/>
    <node id="1499802678" x="0.00" y="8890.48" type="dead_end"/>
    <node id="150544661" x="5854.39" y="11470.76" type="priority"/>
    <node id="150544662" x="6022.81" y="11423.24" type="priority"/>
    <node id="150544671" x="6618.57" y="11111.47" type="right_before_left"/>
    <node id="150544672" x="6597.75" y="11054.90" type="priority"/>
    <node id="150544678" x="7491.69" y="10946.05" type="priority"/>
    <node id="150544680" x="7495.10" y="11035.38" type="priority"/>
    <node id="150545565" x="5522.57" y="11613.13" type="right_before_left"/>
    <node id="150545566" x="5540.96" y="11616.31" type="priority"/>
    <node id="150983575" x="9699.43" y="6832.46" type="priority"/>
    <node id="150983576" x="9792.95" y="6845.78" type="priority"/>
    <node id="150983577" x="9808.54" y="6936.96" type="priority"/>
    <node id="150983588" x="10606.64" y="7027.54" type="right_before_left"/>
    <node id="150983597" x="10658.40" y="7143.59" type="priority"/>
    <node id="150983602" x="11199.25" y="7089.62" type="right_before_left"/>
    <node id="150983611" x="9881.80" y="6919.83" type="priority"/>
    <node id="150983613" x="9761.22" y="6841.39" type="priority"/>
    <node id="153714231" x="12937.88" y="12049.03" type="priority"/>
    <node id="153726641" x="11128.17" y="11271.99" type="priority"/>
    <node id="153726644" x="11061.89" y="11091.84" type="right_before_left"/>
    <node id="153726646" x="10648.42" y="10649.34" type="right_before_left"/>
    <node id="153728843" x="10748.41" y="10557.56" type="right_before_left"/>
    <node id="153731690" x="10100.98" y="11603.72" type="priority"/>
    <node id="153731691" x="10182.93" y="11606.90" type="right_before_left"/>
    <node id="153731692" x="10346.39" y="11589.05" type="priority"/>
    <node id="153740065" x="9687.52" y="11400.48" type="priority"/>
    <node id="153745578" x="9576.23" y="11245.81" type="priority"/>
    <node id="153745581" x="9381.39" y="11035.15" type="right_before_left"/>
    <node id="153745582" x="9210.29" y="10852.52" type="right_before_left"/>
    <node id="153745585" x="9783.48" y="10320.00" type="right_before_left"/>
    <node id="153749326" x="9155.72" y="10651.32" type="priority"/>
    <node id="153749327" x="9108.07" y="10743.00" type="right_before_left"/>
    <node id="153750630" x="9431.50" y="11296.49" type="right_before_left"/>
    <node id="153750631" x="9308.33" y="11338.49" type="priority"/>
    <node id="153750634" x="9196.74" y="11373.76" type="priority"/>
    <node id="153750636" x="9125.95" y="11167.96" type="right_before_left"/>
    <node id="153750637" x="9025.52" y="10872.23" type="priority"/>
    <node id="153750638" x="9145.22" y="10783.63" type="priority"/>
    <node id="153793859" x="4156.79" y="11791.34" type="right_before_left"/>
    <node id="153801862" x="4436.31" y="11740.72" type="right_before_left"/>
    <node id="153801864" x="4532.01" y="11560.13" type="priority"/>
    <node id="153803612" x="4531.91" y="11187.80" type="priority"/>
    <node id="154179248" x="12391.42" y="5497.35" type="priority"/>
    <node id="154179336" x="12359.15" y="5529.12" type="priority"/>
    <node id="1543358389" x="4142.54" y="9765.79" type="priority"/>
    <node id="1547852445" x="5066.94" y="10494.50" type="right_before_left"/>
    <node id="1547852463" x="5220.42" y="10451.05" type="priority"/>
    <node id="1554484560" x="5347.70" y="10709.87" type="right_before_left"/>
    <node id="1567228869" x="10363.18" y="11626.53" type="priority"/>
    <node id="1567228871" x="10411.23" y="11693.04" type="priority"/>
    <node id="1567228876" x="10358.25" y="11798.91" type="right_before_left"/>
    <node id="1567228879" x="10339.37" y="11893.94" type="dead_end"/>
    <node id="1569418255" x="6943.25" y="5331.76" type="priority"/>
    <node id="1569418260" x="7019.74" y="5358.78" type="priority"/>
    <node id="1569418302" x="6965.76" y="5303.45" type="priority"/>
    <node id="1569418306" x="6882.66" y="5421.71" type="priority"/>
    <node id="1599656330" x="4116.38" y="11365.22" type="right_before_left"/>
    <node id="1599656334" x="4524.71" y="11815.14" type="priority"/>
    <node id="1602618621" x="8256.87" y="11881.58" type="dead_end"/>
    <node id="1605554777" x="7481.21" y="9311.58" type="priority"/>
    <node id="1605554787" x="7876.60" y="9346.49" type="priority"/>
    <node id="1605554794" x="7642.97" y="9401.98" type="priority"/>
    <node id="1605554891" x="4347.76" y="10010.06" type="priority"/>
    <node id="1605554895" x="4510.91" y="10099.16" type="right_before_left"/>
    <node id="1605554903" x="4612.14" y="10154.63" type="right_before_left"/>
    <node id="1605554967" x="4845.00" y="11128.46" type="priority"/>
    <node id="1609189062" x="3542.95" y="10603.15" type="priority"/>
    <node id="1609189072" x="3522.17" y="10708.22" type="right_before_left"/>
    <node id="1609189084" x="3604.28" y="10724.56" type="right_before_left"/>
    <node id="1609189097" x="3589.83" y="10797.75" type="priority"/>
    <node id="1609189099" x="3613.15" y="10810.99" type="priority"/>
    <node id="1609189102" x="3547.44" y="10867.89" type="priority"/>
    <node id="1609189108" x="4248.56" y="10863.85" type="priority"/>
    <node id="1609189114" x="3733.93" y="10895.27" type="priority"/>
    <node id="1609189117" x="3556.36" y="10888.02" type="priority"/>
    <node id="1609189122" x="4242.36" y="10915.53" type="priority"/>
    <node id="1609189129" x="3636.47" y="10953.89" type="priority"/>
    <node id="1609189130" x="3688.11" y="10956.00" type="priority"/>
    <node id="1609189142" x="3558.36" y="10987.99" type="priority"/>
    <node id="1609189143" x="3548.25" y="10994.03" type="priority"/>
    <node id="1609189156" x="4105.54" y="11058.73" type="right_before_left"/>
    <node id="1609189157" x="3847.79" y="11081.42" type="priority"/>
    <node id="1609189158" x="3648.84" y="11128.88" type="priority"/>
    <node id="1609189167" x="4161.00" y="11303.42" type="priority"/>
    <node id="1609189171" x="4141.47" y="11341.64" type="right_before_left"/>
    <node id="1609189175" x="4127.71" y="11358.54" type="priority"/>
    <node id="1609189176" x="4248.48" y="11364.28" type="priority"/>
    <node id="1609189177" x="4333.13" y="11423.18" type="priority"/>
    <node id="1609189180" x="4246.20" y="11554.13" type="priority"/>
    <node id="1609189181" x="4129.61" y="11564.27" type="right_before_left"/>
    <node id="1609189183" x="4216.31" y="11606.22" type="right_before_left"/>
    <node id="1609189189" x="4176.99" y="11696.04" type="right_before_left"/>
    <node id="1609189191" x="4311.20" y="11730.68" type="right_before_left"/>
    <node id="1609189195" x="4279.32" y="11821.37" type="right_before_left"/>
    <node id="1609213995" x="4304.92" y="11746.40" type="right_before_left"/>
    <node id="1617051087" x="11565.17" y="5257.32" type="right_before_left"/>
    <node id="1637788213" x="4821.11" y="9902.91" type="priority"/>
    <node id="1638690347" x="4774.91" y="11263.09" type="priority"/>
    <node id="1638690350" x="5256.36" y="11295.92" type="priority"/>
    <node id="1638690351" x="5367.95" y="11315.08" type="right_before_left"/>
    <node id="1638690352" x="5480.28" y="11335.73" type="right_before_left"/>
    <node id="1638690353" x="5566.83" y="11351.66" type="right_before_left"/>
    <node id="1638690354" x="5705.20" y="11378.56" type="priority"/>
    <node id="1638690359" x="5319.17" y="12233.00" type="priority"/>
    <node id="1639331677" x="7681.50" y="11545.94" type="priority"/>
    <node id="1639331691" x="7634.63" y="11563.34" type="dead_end"/>
    <node id="1644613897" x="7450.13" y="8646.47" type="priority"/>
    <node id="1644613904" x="6677.59" y="9217.96" type="priority"/>
    <node id="1644613929" x="5445.38" y="10127.40" type="priority"/>
    <node id="1644613933" x="5383.73" y="10172.09" type="priority"/>
    <node id="1644613948" x="5362.85" y="10188.31" type="priority"/>
    <node id="1644613957" x="4744.37" y="10204.10" type="priority"/>
    <node id="1644613959" x="4733.67" y="10220.93" type="priority"/>
    <node id="1644613960" x="5209.95" y="10300.09" type="priority"/>
    <node id="1644613975" x="4455.75" y="10410.92" type="right_before_left"/>
    <node id="1644614002" x="4980.43" y="10511.43" type="priority"/>
    <node id="1644614005" x="4875.44" y="10547.10" type="priority"/>
    <node id="1644614075" x="4908.24" y="10651.18" type="priority"/>
    <node id="1644614084" x="4899.67" y="10702.91" type="right_before_left"/>
    <node id="1644614099" x="5561.68" y="10704.19" type="priority"/>
    <node id="1644614103" x="4713.44" y="10720.33" type="priority"/>
    <node id="1644614121" x="5480.87" y="10735.24" type="priority"/>
    <node id="1644614158" x="4533.38" y="10801.62" type="priority"/>
    <node id="1644614164" x="4748.56" y="10783.34" type="priority"/>
    <node id="1644614166" x="4666.03" y="10810.07" type="priority"/>
    <node id="1644614205" x="5522.24" y="10832.73" type="priority"/>
    <node id="1644614223" x="5439.90" y="10856.90" type="priority"/>
    <node id="1644614251" x="4628.37" y="10882.90" type="right_before_left"/>
    <node id="1644614331" x="4820.33" y="10926.96" type="right_before_left"/>
    <node id="1644614352" x="4834.77" y="10936.79" type="priority"/>
    <node id="1644614362" x="4819.78" y="10947.04" type="priority"/>
    <node id="1644614387" x="4101.69" y="11324.07" type="right_before_left"/>
    <node id="1644614412" x="4128.22" y="11333.64" type="right_before_left"/>
    <node id="1644614436" x="3850.06" y="11720.65" type="priority"/>
    <node id="1644646759" x="3083.01" y="11055.24" type="priority"/>
    <node id="1644646778" x="3349.26" y="11351.19" type="priority"/>
    <node id="1650103734" x="4026.50" y="11179.07" type="dead_end"/>
    <node id="1650104053" x="3909.18" y="11297.89" type="priority"/>
    <node id="1650104066" x="3906.70" y="11318.93" type="priority"/>
    <node id="1650104080" x="3865.93" y="11335.81" type="right_before_left"/>
    <node id="1650104083" x="3832.22" y="11363.59" type="right_before_left"/>
    <node id="1650104087" x="3916.29" y="11349.08" type="dead_end"/>
    <node id="1650104118" x="3783.49" y="11408.24" type="priority"/>
    <node id="1650104123" x="3769.67" y="11418.05" type="right_before_left"/>
    <node id="1650104132" x="3732.91" y="11438.68" type="priority"/>
    <node id="1650104257" x="3153.33" y="11835.24" type="dead_end"/>
    <node id="1650104297" x="3519.47" y="11949.24" type="dead_end"/>
    <node id="1650104352" x="3074.94" y="12361.69" type="dead_end"/>