<?xml version="1.0" encoding="UTF-8"?>

<!-- generated on 2025-02-05 23:51:39 by Eclipse SUMO netconvert Version 1.19.0
<configuration xmlns:xsi="http://www.w3.org/2001/XMLSchema-instance" xsi:noNamespaceSchemaLocation="http://sumo.dlr.de/xsd/netconvertConfiguration.xsd">

    <input>
        <sumo-net-file value="eichwalde.net.xml"/>
    </input>

    <output>
        <plain-output-prefix value="eichwalde"/>
        <output.street-names value="true"/>
    </output>

    <processing>
        <geometry.min-radius.fix.railways value="false"/>
        <geometry.max-grade.fix value="false"/>
        <offset.disable-normalization value="true"/>
        <lefthand value="0"/>
    </processing>

    <junctions>
        <no-turnarounds value="true"/>
        <junctions.corner-detail value="5"/>
        <junctions.limit-turn-speed value="5.50"/>
        <rectangular-lane-cut value="0"/>
    </junctions>

    <pedestrian>
        <walkingareas value="0"/>
    </pedestrian>

</configuration>
-->

<tlLogics version="1.16" xmlns:xsi="http://www.w3.org/2001/XMLSchema-instance" xsi:noNamespaceSchemaLocation="http://sumo.dlr.de/xsd/tllogic_file.xsd">
    <tlLogic id="1234644037" type="actuated" programID="0" offset="0">
        <phase duration="42" state="GGggrrrrGGggrrrr" minDur="5" maxDur="50"/>
        <phase duration="3"  state="yyyyrrrryyyyrrrr"/>
        <phase duration="42" state="rrrrGGggrrrrGGgg" minDur="5" maxDur="50"/>
        <phase duration="3"  state="rrrryyyyrrrryyyy"/>
    </tlLogic>
    <tlLogic id="246780322" type="actuated" programID="0" offset="0">
        <phase duration="82" state="GGG" minDur="5" maxDur="50"/>
        <phase duration="3"  state="yyy"/>
        <phase duration="5"  state="rrr"/>
    </tlLogic>
    <tlLogic id="2481301522" type="actuated" programID="0" offset="0">
        <phase duration="42" state="GggrrrGGg" minDur="5" maxDur="50"/>
        <phase duration="3"  state="yyyrrryyy"/>
        <phase duration="42" state="rrrGGgGrr" minDur="5" maxDur="50"/>
        <phase duration="3"  state="rrryyyyrr"/>
    </tlLogic>
    <tlLogic id="296091316" type="actuated" programID="0" offset="0">
        <phase duration="42" state="GGgrrrGgg" minDur="5" maxDur="50"/>
        <phase duration="3"  state="yyyrrryyy"/>
        <phase duration="42" state="rrrGGGrrr" minDur="5" maxDur="50"/>
        <phase duration="3"  state="rrryyyrrr"/>
    </tlLogic>
    <tlLogic id="7076353822" type="actuated" programID="0" offset="0">
        <phase duration="82" state="GgGg" minDur="5" maxDur="50"/>
        <phase duration="3"  state="yyyy"/>
        <phase duration="5"  state="rrrr"/>
    </tlLogic>
    <tlLogic id="cluster_101972468_3239724419" type="static" programID="0" offset="0">
        <phase duration="42" state="GgGr"/>
        <phase duration="3"  state="yyyr"/>
        <phase duration="42" state="GrrG"/>
        <phase duration="3"  state="yrry"/>
    </tlLogic>
    <tlLogic id="cluster_101972495_1706996057" type="static" programID="0" offset="0">
        <phase duration="38" state="rGgG"/>
        <phase duration="3"  state="rygy"/>
        <phase duration="6"  state="rrGG"/>
        <phase duration="3"  state="rryy"/>
        <phase duration="37" state="GrGr"/>
        <phase duration="3"  state="yryr"/>
    </tlLogic>
    <tlLogic id="cluster_1599656332_6994510228_6994510229" type="actuated" programID="0" offset="0">
        <phase duration="27" state="rrrrGGggGrrrrrrrG" minDur="5" maxDur="50"/>
        <phase duration="3"  state="rrrryyyyyrrrrrrry"/>
        <phase duration="27" state="GGggrrrrGGggrrrrr" minDur="5" maxDur="50"/>
        <phase duration="3"  state="yyyyrrrryyyyrrrrr"/>
        <phase duration="27" state="GrrrrrrrrrrrGGGgr" minDur="5" maxDur="50"/>
        <phase duration="3"  state="yrrrrrrrrrrryyyyr"/>
    </tlLogic>
    <tlLogic id="cluster_167874644_167874669_1907460195" type="actuated" programID="0" offset="0">
        <phase duration="27" state="GGrgGrrrGGrGrrrrrr" minDur="5" maxDur="50"/>
        <phase duration="3"  state="yyryyrrryyryrrrrrr"/>
        <phase duration="27" state="GGggrrrrrrGGggrrrr" minDur="5" maxDur="50"/>
        <phase duration="3"  state="yyyyrrrrrryyyyrrrr"/>
        <phase duration="27" state="rrrrrGGggrrrrrGGgg" minDur="5" maxDur="50"/>
        <phase duration="3"  state="rrrrryyyyrrrrryyyy"/>
    </tlLogic>
    <tlLogic id="cluster_1683679500_246780323" type="actuated" programID="0" offset="0">
        <phase duration="42" state="GgrrrGGg" minDur="5" maxDur="50"/>
        <phase duration="3"  state="yyrrryyy"/>
        <phase duration="42" state="rrGGGrrr" minDur="5" maxDur="50"/>
        <phase duration="3"  state="rryyyrrr"/>
    </tlLogic>
    <tlLogic id="cluster_1820622388_1929543239_2078713441_2078713444_2078713447_2078713448_21432472_5101431876_6700271646_6700271647_6700271648_6700271649" type="actuated" programID="0" offset="0">
        <phase duration="27" state="GrrGrrrGGgG" minDur="5" maxDur="50"/>
        <phase duration="3"  state="yrryrrryyyy"/>
        <phase duration="27" state="GggrGrrrrrG" minDur="5" maxDur="50"/>
        <phase duration="3"  state="yyyryrrrrry"/>
        <phase duration="27" state="rrrrGGgGrrr" minDur="5" maxDur="50"/>
        <phase duration="3"  state="rrrryyyyrrr"/>
    </tlLogic>
    <tlLogic id="cluster_21483449_296092567_382717803" type="actuated" programID="0" offset="0">
        <phase duration="15" state="ggGGGggrrrrrrGGGggggrrrrrrrrrrrrrrrrrr" minDur="5" maxDur="50"/>
        <phase duration="3"  state="ggyyyggrrrrrryyyggggrrrrrrrrrrrrrrrrrr"/>
        <phase duration="6"  state="ggrrrGGrrrrrrrrrGgGGrrrrrrrrrrrrrrrrrr" minDur="5" maxDur="50"/>
        <phase duration="3"  state="yyrrryyrrrrrrrrryyyyrrrrrrrrrrrrrrrrrr"/>
        <phase duration="15" state="rrrrrrrGGGgggrrrrrrrrrrrrrGGGgggrrrrrr" minDur="5" maxDur="50"/>
        <phase duration="3"  state="rrrrrrryyygggrrrrrrrrrrrrryyygggrrrrrr"/>
        <phase duration="6"  state="rrrrrrrrrrGGGrrrrrrrrrrrrrrrrGGGrrrrrr" minDur="5" maxDur="50"/>
        <phase duration="3"  state="rrrrrrrrrryyyrrrrrrrrrrrrrrrryyyrrrrrr"/>
        <phase duration="15" state="GrrrrrrrrrrrrrrrrrrrrrrrrrrrrrrrGGGGGg" minDur="5" maxDur="50"/>
        <phase duration="3"  state="yrrrrrrrrrrrrrrrrrrrrrrrrrrrrrrryyyyyy"/>
        <phase duration="15" state="rrrrrrrrrrrrrrrrrrrrGGGGGgGrrrrrrrrrrr" minDur="5" maxDur="50"/>
        <phase duration="3"  state="rrrrrrrrrrrrrrrrrrrryyyyyyyrrrrrrrrrrr"/>
    </tlLogic>
    <tlLogic id="cluster_234120413_2663195253_344890128" type="actuated" programID="0" offset="0">
        <phase duration="27" state="rrrrGGgGrrrrrGrrrr" minDur="5" maxDur="50"/>
        <phase duration="3"  state="rrrryyyyrrrrryrrrr"/>
        <phase duration="27" state="GrrrrrrrGrrrrrgGGg" minDur="5" maxDur="50"/>
        <phase duration="3"  state="yrrrrrrryrrrrryyyy"/>
        <phase duration="27" state="GGggrrrrrGGggrrrrr" minDur="5" maxDur="50"/>
        <phase duration="3"  state="yyyyrrrrryyyyrrrrr"/>
    </tlLogic>
    <tlLogic id="cluster_2458846014_6155034343_876679602_876679883" type="actuated" programID="0" offset="0">
        <phase duration="15" state="rrrrrrGGgrrrrGGGgg" minDur="5" maxDur="50"/>
        <phase duration="3"  state="rrrrrryyyrrrryyygg"/>
        <phase duration="6"  state="rrrrrrrrrrrrrGGGGG" minDur="5" maxDur="50"/>
        <phase duration="3"  state="rrrrrrrrrrrrryyyyy"/>
        <phase duration="18" state="rrrrrrrrrGGGgGGrrr" minDur="5" maxDur="50"/>
        <phase duration="3"  state="rrrrrrrrryyyyyyrrr"/>
        <phase duration="18" state="GGGrrrrrrrrrgGGrrr" minDur="5" maxDur="50"/>
        <phase duration="3"  state="yyyrrrrrrrrryyyrrr"/>
        <phase duration="18" state="rrrGGgGrrrrrgGGrrr" minDur="5" maxDur="50"/>
        <phase duration="3"  state="rrryyyyrrrrryyyrrr"/>
    </tlLogic>
    <tlLogic id="cluster_60345087_60345088" type="actuated" programID="0" offset="0">
        <phase duration="42" state="GGggrrrrGGggrrrr" minDur="5" maxDur="50"/>
        <phase duration="3"  state="yyyyrrrryyyyrrrr"/>
        <phase duration="42" state="rrrrGGggrrrrGGgg" minDur="5" maxDur="50"/>
        <phase duration="3"  state="rrrryyyyrrrryyyy"/>
    </tlLogic>

    <connection from="-126100196#4" to="-126100196#0" fromLane="0" toLane="0" tl="cluster_247120010_267009909_291194164_291194165" linkIndex="0"/>
    <connection from="-131490038#0" to="-398043246#2" fromLane="0" toLane="0" tl="cluster_21483449_296092567_382717803" linkIndex="20"/>
    <connection from="-131490038#0" to="-72230296#2" fromLane="0" toLane="0" tl="cluster_21483449_296092567_382717803" linkIndex="21"/>
    <connection from="-131490038#0" to="-217182254#1" fromLane="0" toLane="1" tl="cluster_21483449_296092567_382717803" linkIndex="22"/>
    <connection from="-131490038#0" to="-131490037#3" fromLane="0" toLane="0" tl="cluster_21483449_296092567_382717803" linkIndex="23"/>
    <connection from="-131490038#0" to="-217182256#1" fromLane="0" toLane="0" tl="cluster_21483449_296092567_382717803" linkIndex="24"/>
    <connection from="-131490038#0" to="131490038#0" fromLane="0" toLane="0" tl="cluster_21483449_296092567_382717803" linkIndex="25"/>
    <connection from="-13376682#1" to="421231594#0" fromLane="0" toLane="0" tl="cluster_101972495_1706996057" linkIndex="0"/>
    <connection from="-147330473#8" to="-147330473#6" fromLane="0" toLane="0" tl="cluster_167843973_1907460230" linkIndex="1"/>
    <connection from="-151627008#1" to="74113109" fromLane="0" toLane="0" tl="cluster_2458846014_6155034343_876679602_876679883" linkIndex="13"/>
    <connection from="-151627008#1" to="-40343635#2" fromLane="0" toLane="0" tl="cluster_2458846014_6155034343_876679602_876679883" linkIndex="14"/>
    <connection from="-151627008#1" to="-436928329#2" fromLane="0" toLane="0" tl="cluster_2458846014_6155034343_876679602_876679883" linkIndex="15"/>
    <connection from="-151627008#1" to="-220911301#2" fromLane="1" toLane="0" tl="cluster_2458846014_6155034343_876679602_876679883" linkIndex="16"/>
    <connection from="-151627008#1" to="151627008#0" fromLane="1" toLane="0" tl="cluster_2458846014_6155034343_876679602_876679883" linkIndex="17"/>
    <connection from="-151627027#6" to="-151627027#4" fromLane="0" toLane="0" tl="cluster_1907460206_27442723" linkIndex="0"/>
    <connection from="-151627036#6" to="16343850#1" fromLane="0" toLane="0" tl="cluster_167874644_167874669_1907460195" linkIndex="14"/>
    <connection from="-151627036#6" to="-151627036#3" fromLane="0" toLane="0" tl="cluster_167874644_167874669_1907460195" linkIndex="15"/>
    <connection from="-151627036#6" to="-16343850#0" fromLane="0" toLane="0" tl="cluster_167874644_167874669_1907460195" linkIndex="16"/>
    <connection from="-151627036#6" to="151627036#6" fromLane="0" toLane="0" tl="cluster_167874644_167874669_1907460195" linkIndex="17"/>
    <connection from="-16343850#1" to="-151627036#3" fromLane="0" toLane="0" tl="cluster_167874644_167874669_1907460195" linkIndex="10"/>
    <connection from="-16343850#1" to="-16343850#0" fromLane="0" toLane="0" tl="cluster_167874644_167874669_1907460195" linkIndex="11"/>
    <connection from="-16343850#1" to="151627036#6" fromLane="0" toLane="0" tl="cluster_167874644_167874669_1907460195" linkIndex="12"/>
    <connection from="-16343850#1" to="16343850#1" fromLane="0" toLane="0" tl="cluster_167874644_167874669_1907460195" linkIndex="13"/>
    <connection from="-165067820#4" to="-165067820#2" fromLane="0" toLane="0" tl="cluster_1907460236_332067667" linkIndex="1"/>
    <connection from="-176187615#0" to="-528055209" fromLane="0" toLane="0" tl="cluster_1599656332_6994510228_6994510229" linkIndex="4"/>
    <connection from="-176187615#0" to="-528663684#1" fromLane="0" toLane="0" tl="cluster_1599656332_6994510228_6994510229" linkIndex="5"/>
    <connection from="-176187615#0" to="747513571#1" fromLane="0" toLane="0" tl="cluster_1599656332_6994510228_6994510229" linkIndex="6"/>
    <connection from="-176187615#0" to="176187615#0" fromLane="0" toLane="0" tl="cluster_1599656332_6994510228_6994510229" linkIndex="7"/>
    <connection from="-176187635#0" to="24144977#2" fromLane="0" toLane="0" tl="cluster_234120413_2663195253_344890128" linkIndex="14"/>
    <connection from="-176187635#0" to="-304427113#1" fromLane="0" toLane="0" tl="cluster_234120413_2663195253_344890128" linkIndex="15"/>
    <connection from="-176187635#0" to="-304427112" fromLane="0" toLane="0" tl="cluster_234120413_2663195253_344890128" linkIndex="16"/>
    <connection from="-176187635#0" to="176187635#0" fromLane="0" toLane="0" tl="cluster_234120413_2663195253_344890128" linkIndex="17"/>
    <connection from="-182599168#2" to="-240539088" fromLane="0" toLane="0" tl="cluster_1820622388_1929543239_2078713441_2078713444_2078713447_2078713448_21432472_5101431876_6700271646_6700271647_6700271648_6700271649" linkIndex="4"/>
    <connection from="-182599168#2" to="240539089#1" fromLane="1" toLane="0" tl="cluster_1820622388_1929543239_2078713441_2078713444_2078713447_2078713448_21432472_5101431876_6700271646_6700271647_6700271648_6700271649" linkIndex="5"/>
    <connection from="-182599168#2" to="182599168#0" fromLane="1" toLane="0" tl="cluster_1820622388_1929543239_2078713441_2078713444_2078713447_2078713448_21432472_5101431876_6700271646_6700271647_6700271648_6700271649" linkIndex="6"/>
    <connection from="-24032441#2" to="-24032441#0" fromLane="0" toLane="0" tl="cluster_1907460175_332690485" linkIndex="1"/>
    <connection from="-24144977#2" to="-304427113#1" fromLane="0" toLane="0" tl="cluster_234120413_2663195253_344890128" linkIndex="9"/>
    <connection from="-24144977#2" to="-304427112" fromLane="0" toLane="0" tl="cluster_234120413_2663195253_344890128" linkIndex="10"/>
    <connection from="-24144977#2" to="176187635#0" fromLane="0" toLane="0" tl="cluster_234120413_2663195253_344890128" linkIndex="11"/>
    <connection from="-24144977#2" to="24144977#2" fromLane="0" toLane="0" tl="cluster_234120413_2663195253_344890128" linkIndex="12"/>
    <connection from="-24152013#5" to="-24152013#3" fromLane="0" toLane="0" tl="cluster_167820618_1907460169" linkIndex="0"/>
    <connection from="-255274251#3" to="-255274251#0" fromLane="0" toLane="0" tl="cluster_295218733_295218734_295218736" linkIndex="0"/>
    <connection from="-26984177#0" to="-219793044#3" fromLane="0" toLane="0" tl="1234644037" linkIndex="0"/>
    <connection from="-26984177#0" to="-40902198#1" fromLane="0" toLane="0" tl="1234644037" linkIndex="1"/>
    <connection from="-26984177#0" to="-589705321" fromLane="0" toLane="0" tl="1234644037" linkIndex="2"/>
    <connection from="-26984177#0" to="26984177#0" fromLane="0" toLane="0" tl="1234644037" linkIndex="3"/>
    <connection from="-27002935#6" to="-27002935#2" fromLane="0" toLane="0" tl="cluster_295987239_295987289_295987292_296020213" linkIndex="1"/>
    <connection from="-27004371#7" to="-27004371#4" fromLane="0" toLane="0" tl="cluster_296000685_296000686_296000687" linkIndex="0"/>
    <connection from="-27004371#9" to="-27004371#8" fromLane="0" toLane="0" tl="296020222" linkIndex="0"/>
    <connection from="-304426111#0" to="-415907055#1" fromLane="0" toLane="0" tl="cluster_324050995_392535291_392535292_546558524" linkIndex="0"/>
    <connection from="-323635840#1" to="-323635840#0" fromLane="0" toLane="0" tl="1952732861" linkIndex="1"/>
    <connection from="-37293019#1" to="-625970856#4" fromLane="0" toLane="0" tl="2481301522" linkIndex="6"/>
    <connection from="-37293019#1" to="-37293019#0" fromLane="0" toLane="0" tl="2481301522" linkIndex="7"/>
    <connection from="-37293019#1" to="37293019#1" fromLane="0" toLane="0" tl="2481301522" linkIndex="8"/>
    <connection from="-392498663#2" to="-392498663#1" fromLane="0" toLane="0" tl="966846124" linkIndex="0"/>
    <connection from="-392498663#3" to="-392498663#2" fromLane="0" toLane="0" tl="966846146" linkIndex="1"/>
    <connection from="-4045248#4" to="8067762#0" fromLane="0" toLane="0" tl="cluster_60345087_60345088" linkIndex="8"/>
    <connection from="-4045248#4" to="-4045248#2" fromLane="0" toLane="0" tl="cluster_60345087_60345088" linkIndex="9"/>
    <connection from="-4045248#4" to="8067761" fromLane="0" toLane="0" tl="cluster_60345087_60345088" linkIndex="10"/>
    <connection from="-4045248#4" to="4045248#4" fromLane="0" toLane="0" tl="cluster_60345087_60345088" linkIndex="11"/>
    <connection from="-4463780#1" to="-4463780#0" fromLane="0" toLane="0" tl="7076353822" linkIndex="2"/>
    <connection from="-4463780#1" to="4463780#1" fromLane="0" toLane="0" tl="7076353822" linkIndex="3"/>
    <connection from="-4920470#1" to="210340062#2" fromLane="0" toLane="0" tl="296091316" linkIndex="0"/>
    <connection from="-4920470#1" to="-4920470#0" fromLane="0" toLane="0" tl="296091316" linkIndex="1"/>
    <connection from="-4920470#1" to="4920470#1" fromLane="0" toLane="0" tl="296091316" linkIndex="2"/>
    <connection from="-72230296#2" to="156066220#0" fromLane="0" toLane="0" tl="cluster_1683679500_246780323" linkIndex="0"/>
    <connection from="-72230296#2" to="72230296#0" fromLane="0" toLane="1" tl="cluster_1683679500_246780323" linkIndex="1"/>
    <connection from="-747513571#1" to="176187615#0" fromLane="0" toLane="0" tl="cluster_1599656332_6994510228_6994510229" linkIndex="8"/>
    <connection from="-747513571#1" to="-528055209" fromLane="0" toLane="0" tl="cluster_1599656332_6994510228_6994510229" linkIndex="9"/>
    <connection from="-747513571#1" to="-528663684#1" fromLane="0" toLane="0" tl="cluster_1599656332_6994510228_6994510229" linkIndex="10"/>
    <connection from="-747513571#1" to="747513571#1" fromLane="0" toLane="0" tl="cluster_1599656332_6994510228_6994510229" linkIndex="11"/>
    <connection from="-8067761" to="4045248#4" fromLane="0" toLane="0" tl="cluster_60345087_60345088" linkIndex="12"/>
    <connection from="-8067761" to="8067762#0" fromLane="0" toLane="0" tl="cluster_60345087_60345088" linkIndex="13"/>
    <connection from="-8067761" to="-4045248#2" fromLane="0" toLane="0" tl="cluster_60345087_60345088" linkIndex="14"/>
    <connection from="-8067761" to="8067761" fromLane="0" toLane="0" tl="cluster_60345087_60345088" linkIndex="15"/>
    <connection from="-8067762#0" to="-4045248#2" fromLane="0" toLane="0" tl="cluster_60345087_60345088" linkIndex="4"/>
    <connection from="-8067762#0" to="8067761" fromLane="0" toLane="0" tl="cluster_60345087_60345088" linkIndex="5"/>
    <connection from="-8067762#0" to="4045248#4" fromLane="0" toLane="0" tl="cluster_60345087_60345088" linkIndex="6"/>
    <connection from="-8067762#0" to="8067762#0" fromLane="0" toLane="0" tl="cluster_60345087_60345088" linkIndex="7"/>
    <connection from="131490037#3" to="-217182256#1" fromLane="0" toLane="0" tl="cluster_21483449_296092567_382717803" linkIndex="32"/>
    <connection from="131490037#3" to="131490038#0" fromLane="0" toLane="0" tl="cluster_21483449_296092567_382717803" linkIndex="33"/>
    <connection from="131490037#3" to="-398043246#2" fromLane="0" toLane="1" tl="cluster_21483449_296092567_382717803" linkIndex="34"/>
    <connection from="131490037#3" to="-72230296#2" fromLane="0" toLane="0" tl="cluster_21483449_296092567_382717803" linkIndex="35"/>
    <connection from="131490037#3" to="-217182254#1" fromLane="0" toLane="1" tl="cluster_21483449_296092567_382717803" linkIndex="36"/>
    <connection from="131490037#3" to="-131490037#3" fromLane="0" toLane="0" tl="cluster_21483449_296092567_382717803" linkIndex="37"/>
    <connection from="147330473#6" to="147330473#8" fromLane="0" toLane="0" tl="cluster_167843973_1907460230" linkIndex="0"/>
    <connection from="151627027#4" to="151627027#6" fromLane="0" toLane="0" tl="cluster_1907460206_27442723" linkIndex="1"/>
    <connection from="151627036#3" to="-16343850#0" fromLane="0" toLane="0" tl="cluster_167874644_167874669_1907460195" linkIndex="5"/>
    <connection from="151627036#3" to="151627036#6" fromLane="0" toLane="0" tl="cluster_167874644_167874669_1907460195" linkIndex="6"/>
    <connection from="151627036#3" to="16343850#1" fromLane="0" toLane="0" tl="cluster_167874644_167874669_1907460195" linkIndex="7"/>
    <connection from="151627036#3" to="-151627036#3" fromLane="0" toLane="0" tl="cluster_167874644_167874669_1907460195" linkIndex="8"/>
    <connection from="152177651" to="22955323#1" fromLane="0" toLane="0" tl="4396761727" linkIndex="0"/>
    <connection from="153134060#0" to="153134060#1" fromLane="0" toLane="0" tl="cluster_295218733_295218734_295218736" linkIndex="-1"/>
    <connection from="158512978#0" to="158512978#1" fromLane="0" toLane="0" tl="cluster_101972495_1706996057" linkIndex="1"/>
    <connection from="158514782#1" to="22918370" fromLane="0" toLane="0" tl="246780322" linkIndex="0"/>
    <connection from="158514782#1" to="22918370" fromLane="1" toLane="1" tl="246780322" linkIndex="1"/>
    <connection from="158514782#1" to="22918370" fromLane="2" toLane="2" tl="246780322" linkIndex="2"/>
    <connection from="16343850#0" to="151627036#6" fromLane="0" toLane="0" tl="cluster_167874644_167874669_1907460195" linkIndex="0"/>
    <connection from="16343850#0" to="16343850#1" fromLane="0" toLane="0" tl="cluster_167874644_167874669_1907460195" linkIndex="1"/>
    <connection from="16343850#0" to="-151627036#3" fromLane="0" toLane="0" tl="cluster_167874644_167874669_1907460195" linkIndex="2"/>
    <connection from="16343850#0" to="-16343850#0" fromLane="0" toLane="0" tl="cluster_167874644_167874669_1907460195" linkIndex="3"/>
    <connection from="165067820#2" to="165067820#4" fromLane="0" toLane="0" tl="cluster_1907460236_332067667" linkIndex="0"/>
    <connection from="169008810#10" to="169008810#12" fromLane="0" toLane="0" tl="cluster_1820622388_1929543239_2078713441_2078713444_2078713447_2078713448_21432472_5101431876_6700271646_6700271647_6700271648_6700271649" linkIndex="10"/>
    <connection from="169008810#14" to="169008810#15" fromLane="0" toLane="0" tl="cluster_101972468_3239724419" linkIndex="2"/>
    <connection from="180390329#11" to="180390329#12" fromLane="0" toLane="0" tl="cluster_1383533687_1907460222" linkIndex="-1"/>
    <connection from="180390329#12" to="180390329#13" fromLane="0" toLane="0" tl="cluster_1383533683_1907460219" linkIndex="-1"/>
    <connection from="180390329#13" to="180390329#14" fromLane="0" toLane="0" tl="cluster_1907460206_27442723" linkIndex="-1"/>
    <connection from="180390329#19" to="180390329#20" fromLane="0" toLane="0" tl="cluster_1907460175_332690485" linkIndex="-1"/>
    <connection from="180390329#20" to="180390329#21" fromLane="0" toLane="0" tl="cluster_167820618_1907460169" linkIndex="-1"/>
    <connection from="180390329#23" to="180390329#24" fromLane="0" toLane="0" tl="cluster_1891980126_332067661" linkIndex="-1"/>
    <connection from="180390329#26" to="180390329#27" fromLane="0" toLane="0" tl="cluster_234120413_2663195253_344890128" linkIndex="13"/>
    <connection from="180390329#3" to="180390329#4" fromLane="0" toLane="0" tl="cluster_1907460236_332067667" linkIndex="-1"/>
    <connection from="180390329#4" to="180390329#5" fromLane="0" toLane="0" tl="cluster_167843973_1907460230" linkIndex="-1"/>
    <connection from="180390329#6" to="180390329#7" fromLane="0" toLane="0" tl="cluster_167874644_167874669_1907460195" linkIndex="9"/>
    <connection from="180390329#9" to="180390329#10" fromLane="0" toLane="0" tl="cluster_1907460217_332067676" linkIndex="-1"/>
    <connection from="210340062#1" to="4920470#1" fromLane="0" toLane="0" tl="296091316" linkIndex="3"/>
    <connection from="210340062#1" to="210340062#2" fromLane="0" toLane="0" tl="296091316" linkIndex="4"/>
    <connection from="210340062#1" to="-4920470#0" fromLane="0" toLane="0" tl="296091316" linkIndex="5"/>
    <connection from="217182254#1" to="-131490037#3" fromLane="0" toLane="0" tl="cluster_21483449_296092567_382717803" linkIndex="0"/>
    <connection from="217182254#1" to="-217182256#1" fromLane="0" toLane="0" tl="cluster_21483449_296092567_382717803" linkIndex="1"/>
    <connection from="217182254#1" to="131490038#0" fromLane="0" toLane="0" tl="cluster_21483449_296092567_382717803" linkIndex="2"/>
    <connection from="217182254#1" to="-398043246#2" fromLane="0" toLane="0" tl="cluster_21483449_296092567_382717803" linkIndex="3"/>
    <connection from="217182254#1" to="-398043246#2" fromLane="1" toLane="1" tl="cluster_21483449_296092567_382717803" linkIndex="4"/>
    <connection from="217182254#1" to="-72230296#2" fromLane="1" toLane="0" tl="cluster_21483449_296092567_382717803" linkIndex="5"/>
    <connection from="217182254#1" to="-217182254#1" fromLane="1" toLane="1" tl="cluster_21483449_296092567_382717803" linkIndex="6"/>
    <connection from="217182256#0" to="131490038#0" fromLane="0" toLane="0" tl="cluster_21483449_296092567_382717803" linkIndex="26"/>
    <connection from="217182256#0" to="-398043246#2" fromLane="0" toLane="0" tl="cluster_21483449_296092567_382717803" linkIndex="27"/>
    <connection from="217182256#0" to="-72230296#2" fromLane="0" toLane="0" tl="cluster_21483449_296092567_382717803" linkIndex="28"/>
    <connection from="217182256#0" to="-217182254#1" fromLane="1" toLane="1" tl="cluster_21483449_296092567_382717803" linkIndex="29"/>
    <connection from="217182256#0" to="-131490037#3" fromLane="1" toLane="0" tl="cluster_21483449_296092567_382717803" linkIndex="30"/>
    <connection from="217182256#0" to="-217182256#1" fromLane="1" toLane="0" tl="cluster_21483449_296092567_382717803" linkIndex="31"/>
    <connection from="219793044#3" to="-40902198#1" fromLane="0" toLane="0" tl="1234644037" linkIndex="12"/>
    <connection from="219793044#3" to="-589705321" fromLane="0" toLane="0" tl="1234644037" linkIndex="13"/>
    <connection from="219793044#3" to="26984177#0" fromLane="0" toLane="0" tl="1234644037" linkIndex="14"/>
    <connection from="219793044#3" to="-219793044#3" fromLane="0" toLane="0" tl="1234644037" linkIndex="15"/>
    <connection from="220911301#2" to="151627008#0" fromLane="0" toLane="0" tl="cluster_2458846014_6155034343_876679602_876679883" linkIndex="3"/>
    <connection from="220911301#2" to="-436928329#2" fromLane="0" toLane="0" tl="cluster_2458846014_6155034343_876679602_876679883" linkIndex="4"/>
    <connection from="220911301#2" to="-220911301#2" fromLane="0" toLane="0" tl="cluster_2458846014_6155034343_876679602_876679883" linkIndex="5"/>
    <connection from="22918370" to="72230296#0" fromLane="0" toLane="0" tl="cluster_1683679500_246780323" linkIndex="2"/>
    <connection from="22918370" to="72230296#0" fromLane="1" toLane="1" tl="cluster_1683679500_246780323" linkIndex="3"/>
    <connection from="22918370" to="156066220#0" fromLane="2" toLane="1" tl="cluster_1683679500_246780323" linkIndex="4"/>
    <connection from="22955557#1" to="22955557#2" fromLane="0" toLane="0" tl="cluster_247120010_267009909_291194164_291194165" linkIndex="-1"/>
    <connection from="22955557#2" to="22955557#3" fromLane="0" toLane="0" tl="cluster_2476940049_2476940061_2476940071_2476940083" linkIndex="-1"/>
    <connection from="22955557#3" to="441932166#1" fromLane="0" toLane="0" tl="cluster_295987239_295987289_295987292_296020213" linkIndex="-1"/>
    <connection from="24032441#0" to="24032441#2" fromLane="0" toLane="0" tl="cluster_1907460175_332690485" linkIndex="0"/>
    <connection from="240539088" to="240539089#1" fromLane="0" toLane="0" tl="cluster_1820622388_1929543239_2078713441_2078713444_2078713447_2078713448_21432472_5101431876_6700271646_6700271647_6700271648_6700271649" linkIndex="0"/>
    <connection from="240539088" to="182599168#0" fromLane="0" toLane="0" tl="cluster_1820622388_1929543239_2078713441_2078713444_2078713447_2078713448_21432472_5101431876_6700271646_6700271647_6700271648_6700271649" linkIndex="1"/>
    <connection from="240539088" to="-240539088" fromLane="0" toLane="0" tl="cluster_1820622388_1929543239_2078713441_2078713444_2078713447_2078713448_21432472_5101431876_6700271646_6700271647_6700271648_6700271649" linkIndex="2"/>
    <connection from="24055988#0" to="24055988#1" fromLane="0" toLane="0" tl="4396761705" linkIndex="0"/>
    <connection from="24055988#1" to="24055988#2" fromLane="0" toLane="0" tl="4396380197" linkIndex="0"/>
    <connection from="24055999#0" to="24055999#1" fromLane="0" toLane="0" tl="260945344" linkIndex="0"/>
    <connection from="24056003#0" to="24056003#1" fromLane="0" toLane="0" tl="4396380196" linkIndex="0"/>
    <connection from="24145067#1" to="24145067#3" fromLane="0" toLane="0" tl="cluster_1891980126_332067661" linkIndex="0"/>
    <connection from="24152013#3" to="24152013#5" fromLane="0" toLane="0" tl="cluster_167820618_1907460169" linkIndex="1"/>
    <connection from="248740648#0" to="248740648#1" fromLane="0" toLane="0" tl="cluster_295218733_295218734_295218736" linkIndex="-1"/>
    <connection from="248740648#1" to="248740648#2" fromLane="0" toLane="0" tl="cluster_296000685_296000686_296000687" linkIndex="-1"/>
    <connection from="248740648#2" to="248740648#3" fromLane="0" toLane="0" tl="cluster_295987239_295987289_295987292_296020213" linkIndex="-1"/>
    <connection from="248740648#3" to="441932172#1" fromLane="0" toLane="0" tl="cluster_2476940049_2476940061_2476940071_2476940083" linkIndex="-1"/>
    <connection from="251750396#2" to="22955557#1" fromLane="0" toLane="0" tl="cluster_324050995_392535291_392535292_546558524" linkIndex="-1"/>
    <connection from="255274251#0" to="255274251#3" fromLane="0" toLane="0" tl="cluster_295218733_295218734_295218736" linkIndex="1"/>
    <connection from="263108169#23" to="263108169#24" fromLane="0" toLane="0" tl="cluster_234120413_2663195253_344890128" linkIndex="8"/>
    <connection from="263108169#25" to="263108169#26" fromLane="0" toLane="0" tl="cluster_1891980126_332067661" linkIndex="-1"/>
    <connection from="263108169#28" to="263108169#29" fromLane="0" toLane="0" tl="cluster_167820618_1907460169" linkIndex="-1"/>