<?xml version="1.0" encoding="UTF-8"?>

<!-- generated on 2025-02-05 23:51:39 by Eclipse SUMO netconvert Version 1.19.0
<configuration xmlns:xsi="http://www.w3.org/2001/XMLSchema-instance" xsi:noNamespaceSchemaLocation="http://sumo.dlr.de/xsd/netconvertConfiguration.xsd">

    <input>
        <sumo-net-file value="eichwalde.net.xml"/>
    </input>

    <output>
        <plain-output-prefix value="eichwalde"/>
        <output.street-names value="true"/>
    </output>

    <processing>
        <geometry.min-radius.fix.railways value="false"/>
        <geometry.max-grade.fix value="false"/>
        <offset.disable-normalization value="true"/>
        <lefthand value="0"/>
    </processing>

    <junctions>
        <no-turnarounds value="true"/>
        <junctions.corner-detail value="5"/>
        <junctions.limit-turn-speed value="5.50"/>
        <rectangular-lane-cut value="0"/>
    </junctions>

    <pedestrian>
        <walkingareas value="0"/>
    </pedestrian>

</configuration>
-->

<connections version="1.16" xmlns:xsi="http://www.w3.org/2001/XMLSchema-instance" xsi:noNamespaceSchemaLocation="http://sumo.dlr.de/xsd/connections_file.xsd">
    <connection from="-10081209" to="38415026#1" fromLane="0" toLane="0"/>
    <connection from="-10081209" to="-38415026#0" fromLane="0" toLane="0"/>
    <connection from="-10081209" to="10081209" fromLane="0" toLane="0"/>

    <connection from="-10081213#0" to="-83377384#5" fromLane="0" toLane="0"/>
    <connection from="-10081213#0" to="83377384#6" fromLane="0" toLane="0"/>
    <connection from="-10081213#0" to="10081213#0" fromLane="0" toLane="0"/>

    <connection from="-10081213#1" to="-26638810#1" fromLane="0" toLane="0"/>
    <connection from="-10081213#1" to="-10081213#0" fromLane="0" toLane="0"/>
    <connection from="-10081213#1" to="10081213#1" fromLane="0" toLane="0"/>

    <connection from="-10081215#0" to="-83377384#2" fromLane="0" toLane="0"/>
    <connection from="-10081215#0" to="83377384#3" fromLane="0" toLane="0"/>
    <connection from="-10081215#0" to="10081215#0" fromLane="0" toLane="0"/>

    <connection from="-10081215#1" to="-10081215#0" fromLane="0" toLane="0"/>
    <connection from="-10081215#1" to="26638809" fromLane="0" toLane="0"/>
    <connection from="-10081215#1" to="10081215#1" fromLane="0" toLane="0"/>

    <connection from="-10081218#0" to="38416377" fromLane="0" toLane="0"/>
    <connection from="-10081218#0" to="-4463796#6" fromLane="0" toLane="0"/>
    <connection from="-10081218#0" to="28924483#0" fromLane="0" toLane="0"/>
    <connection from="-10081218#0" to="10081218#0" fromLane="0" toLane="0"/>

    <connection from="-10081218#1" to="38416256#0" fromLane="0" toLane="0"/>
    <connection from="-10081218#1" to="-10081218#0" fromLane="0" toLane="0"/>
    <connection from="-10081218#1" to="10081218#1" fromLane="0" toLane="0"/>

    <connection from="-10081218#3" to="38416233" fromLane="0" toLane="0"/>
    <connection from="-10081218#3" to="-10081218#1" fromLane="0" toLane="0"/>
    <connection from="-10081218#3" to="-23240592#4" fromLane="0" toLane="0"/>
    <connection from="-10081218#3" to="10081218#3" fromLane="0" toLane="0"/>

    <connection from="-10081218#4" to="38416219" fromLane="0" toLane="0"/>
    <connection from="-10081218#4" to="-10081218#3" fromLane="0" toLane="0"/>
    <connection from="-10081218#4" to="10081218#4" fromLane="0" toLane="0"/>

    <connection from="-10081218#5" to="38416216" fromLane="0" toLane="0"/>
    <connection from="-10081218#5" to="-10081218#4" fromLane="0" toLane="0"/>
    <connection from="-10081218#5" to="10081218#5" fromLane="0" toLane="0"/>

    <connection from="-10081218#6" to="38416215" fromLane="0" toLane="0"/>
    <connection from="-10081218#6" to="-10081218#5" fromLane="0" toLane="0"/>
    <connection from="-10081218#6" to="10081218#6" fromLane="0" toLane="0"/>

    <connection from="-10081218#7" to="38416296" fromLane="0" toLane="0"/>
    <connection from="-10081218#7" to="-10081218#6" fromLane="0" toLane="0"/>
    <connection from="-10081218#7" to="10081218#7" fromLane="0" toLane="0"/>

    <connection from="-10081218#8" to="722188845" fromLane="0" toLane="0"/>
    <connection from="-10081218#8" to="-10081218#7" fromLane="0" toLane="0"/>
    <connection from="-10081218#8" to="10081218#8" fromLane="0" toLane="0"/>

    <connection from="-10081221" to="-10081215#1" fromLane="0" toLane="0"/>
    <connection from="-10081221" to="-10081213#1" fromLane="0" toLane="0"/>
    <connection from="-10081221" to="10081221" fromLane="0" toLane="0"/>

    <connection from="-102464971" to="276612218#0" fromLane="0" toLane="0"/>
    <connection from="-102464971" to="-27683521#1" fromLane="0" toLane="0"/>
    <connection from="-102464971" to="-14558168" fromLane="0" toLane="0"/>
    <connection from="-102464971" to="102464971" fromLane="0" toLane="0"/>

    <connection from="-10274921" to="-23532795#2" fromLane="0" toLane="0"/>
    <connection from="-10274921" to="23532795#3" fromLane="0" toLane="0"/>
    <connection from="-10274921" to="10274921" fromLane="0" toLane="0"/>

    <connection from="-10274922" to="152177655#1" fromLane="0" toLane="0"/>

    <connection from="-10355068#0" to="10355068#0" fromLane="0" toLane="0"/>

    <connection from="-10355068#1" to="128565543" fromLane="0" toLane="0"/>
    <connection from="-10355068#1" to="-10355068#0" fromLane="0" toLane="0"/>
    <connection from="-10355068#1" to="10355068#1" fromLane="0" toLane="0"/>

    <connection from="-10355068#2" to="128565544" fromLane="0" toLane="0"/>
    <connection from="-10355068#2" to="-10355068#1" fromLane="0" toLane="0"/>
    <connection from="-10355068#2" to="10355068#2" fromLane="0" toLane="0"/>

    <connection from="-10568716#0" to="-124266854#1" fromLane="0" toLane="0"/>
    <connection from="-10568716#0" to="124266854#2" fromLane="0" toLane="0"/>
    <connection from="-10568716#0" to="10568716#0" fromLane="0" toLane="0"/>

    <connection from="-10568716#1" to="-10568716#0" fromLane="0" toLane="0"/>
    <connection from="-10568716#1" to="547524830" fromLane="0" toLane="0"/>
    <connection from="-10568716#1" to="10568716#1" fromLane="0" toLane="0"/>

    <connection from="-10587008#0" to="-33745490#1" fromLane="0" toLane="0"/>
    <connection from="-10587008#0" to="-389273282" fromLane="0" toLane="0"/>
    <connection from="-10587008#0" to="10587008#0" fromLane="0" toLane="0"/>

    <connection from="-10587008#1" to="-10587008#0" fromLane="0" toLane="0"/>
    <connection from="-10587008#1" to="261938470" fromLane="0" toLane="0"/>
    <connection from="-10587008#1" to="10587008#1" fromLane="0" toLane="0"/>

    <connection from="-10587009#0" to="10587009#0" fromLane="0" toLane="0"/>

    <connection from="-10587009#1" to="-10587009#0" fromLane="0" toLane="0"/>
    <connection from="-10587009#1" to="791188174" fromLane="0" toLane="0"/>
    <connection from="-10587009#1" to="10587009#1" fromLane="0" toLane="0"/>

    <connection from="-10587009#2" to="-33745891" fromLane="0" toLane="0"/>
    <connection from="-10587009#2" to="-10587009#1" fromLane="0" toLane="0"/>
    <connection from="-10587009#2" to="10587009#2" fromLane="0" toLane="0"/>

    <connection from="-10587009#3" to="-10587009#2" fromLane="0" toLane="0"/>
    <connection from="-10587009#3" to="780133076" fromLane="0" toLane="0"/>
    <connection from="-10587009#3" to="10587009#3" fromLane="0" toLane="0"/>

    <connection from="-10587012#1" to="4463796#0" fromLane="0" toLane="0"/>
    <connection from="-10587012#1" to="-157743397#2" fromLane="0" toLane="0"/>
    <connection from="-10587012#1" to="206903449#5" fromLane="0" toLane="0"/>
    <connection from="-10587012#1" to="10587012#1" fromLane="0" toLane="0"/>

    <connection from="-10587012#2" to="-206903454" fromLane="0" toLane="0"/>
    <connection from="-10587012#2" to="-10587012#1" fromLane="0" toLane="0"/>
    <connection from="-10587012#2" to="10587012#2" fromLane="0" toLane="0"/>

    <connection from="-10587012#3" to="27684615#1" fromLane="0" toLane="0"/>
    <connection from="-10587012#3" to="-10587012#2" fromLane="0" toLane="0"/>
    <connection from="-10587012#3" to="511568611" fromLane="0" toLane="0"/>
    <connection from="-10587012#3" to="-27684615#0" fromLane="0" toLane="0"/>
    <connection from="-10587012#3" to="10587012#3" fromLane="0" toLane="0"/>

    <connection from="-10587012#4" to="-27473556#2" fromLane="0" toLane="0"/>
    <connection from="-10587012#4" to="-10587012#3" fromLane="0" toLane="0"/>
    <connection from="-10587012#4" to="34230094#0" fromLane="0" toLane="0"/>
    <connection from="-10587012#4" to="10587012#4" fromLane="0" toLane="0"/>

    <connection from="-10587012#5" to="27684776#1" fromLane="0" toLane="0"/>
    <connection from="-10587012#5" to="-10587012#4" fromLane="0" toLane="0"/>
    <connection from="-10587012#5" to="-27684776#0" fromLane="0" toLane="0"/>
    <connection from="-10587012#5" to="10587012#5" fromLane="0" toLane="0"/>

    <connection from="-10587012#6" to="27684790#2" fromLane="0" toLane="0"/>
    <connection from="-10587012#6" to="-10587012#5" fromLane="0" toLane="0"/>
    <connection from="-10587012#6" to="-27684790#1" fromLane="0" toLane="0"/>
    <connection from="-10587012#6" to="10587012#6" fromLane="0" toLane="0"/>

    <connection from="-10587012#7" to="27684608#3" fromLane="0" toLane="0"/>
    <connection from="-10587012#7" to="-10587012#6" fromLane="0" toLane="0"/>
    <connection from="-10587012#7" to="-27684608#2" fromLane="0" toLane="0"/>
    <connection from="-10587012#7" to="10587012#7" fromLane="0" toLane="0"/>

    <connection from="-10587012#8" to="27684800#1" fromLane="0" toLane="0"/>
    <connection from="-10587012#8" to="-10587012#7" fromLane="0" toLane="0"/>
    <connection from="-10587012#8" to="-27684800#0" fromLane="0" toLane="0"/>
    <connection from="-10587012#8" to="10587012#8" fromLane="0" toLane="0"/>

    <connection from="-10587013#0" to="389273284#1" fromLane="0" toLane="0"/>
    <connection from="-10587013#0" to="108257291#0" fromLane="0" toLane="0"/>
    <connection from="-10587013#0" to="-389273283" fromLane="0" toLane="0"/>
    <connection from="-10587013#0" to="10587013#0" fromLane="0" toLane="0"/>

    <connection from="-10587013#1" to="722214350" fromLane="0" toLane="0"/>
    <connection from="-10587013#1" to="-10587013#0" fromLane="0" toLane="0"/>
    <connection from="-10587013#1" to="10587013#1" fromLane="0" toLane="0"/>

    <connection from="-10587014#0" to="-70532933" fromLane="0" toLane="0"/>
    <connection from="-10587014#0" to="321032684#0" fromLane="0" toLane="0"/>
    <connection from="-10587014#0" to="321032687#1" fromLane="0" toLane="0"/>
    <connection from="-10587014#0" to="-33745280" fromLane="0" toLane="0"/>
    <connection from="-10587014#0" to="10587014#0" fromLane="0" toLane="0"/>

    <connection from="-10587015#0" to="33745878#0" fromLane="0" toLane="0"/>
    <connection from="-10587015#0" to="-10587013#1" fromLane="0" toLane="0"/>
    <connection from="-10587015#0" to="10587015#0" fromLane="0" toLane="0"/>

    <connection from="-10587015#1" to="-10587009#3" fromLane="0" toLane="0"/>
    <connection from="-10587015#1" to="-10587015#0" fromLane="0" toLane="0"/>
    <connection from="-10587015#1" to="10587015#1" fromLane="0" toLane="0"/>

    <connection from="-10671504#0" to="-176187635#1" fromLane="0" toLane="0"/>
    <connection from="-10671504#0" to="176187635#2" fromLane="0" toLane="0"/>

    <connection from="-10671504#1" to="24032488#2" fromLane="0" toLane="0"/>
    <connection from="-10671504#1" to="-10671504#0" fromLane="0" toLane="0"/>
    <connection from="-10671504#1" to="10671504#1" fromLane="0" toLane="0"/>

    <connection from="-10671504#2" to="-10671504#1" fromLane="0" toLane="0"/>
    <connection from="-10671504#2" to="317244747" fromLane="0" toLane="0"/>
    <connection from="-10671504#2" to="10671504#2" fromLane="0" toLane="0"/>

    <connection from="-107370591" to="-131942159#3" fromLane="0" toLane="0"/>
    <connection from="-107370591" to="107370601" fromLane="0" toLane="0"/>
    <connection from="-107370591" to="107370591" fromLane="0" toLane="0"/>

    <connection from="-107370592#0" to="721683965" fromLane="0" toLane="0"/>
    <connection from="-107370592#0" to="-535163355#1" fromLane="0" toLane="0"/>
    <connection from="-107370592#0" to="-4920425#6" fromLane="0" toLane="0"/>
    <connection from="-107370592#0" to="107370592#0" fromLane="0" toLane="0"/>

    <connection from="-107370592#1" to="4920428" fromLane="0" toLane="0"/>
    <connection from="-107370592#1" to="-107370592#0" fromLane="0" toLane="0"/>
    <connection from="-107370592#1" to="107370592#1" fromLane="0" toLane="0"/>

    <connection from="-107370592#2" to="-107370592#1" fromLane="0" toLane="0"/>
    <connection from="-107370592#2" to="23953059" fromLane="0" toLane="0"/>
    <connection from="-107370592#2" to="107370592#2" fromLane="0" toLane="0"/>

    <connection from="-107370592#3" to="-107370592#2" fromLane="0" toLane="0"/>
    <connection from="-107370592#3" to="107370592#3" fromLane="0" toLane="0"/>

    <connection from="-107370592#4" to="-23953061#1" fromLane="0" toLane="0"/>
    <connection from="-107370592#4" to="-107370592#3" fromLane="0" toLane="0"/>
    <connection from="-107370592#4" to="107370592#4" fromLane="0" toLane="0"/>

    <connection from="-107370592#5" to="5082443#5" fromLane="0" toLane="0"/>
    <connection from="-107370592#5" to="-107370592#4" fromLane="0" toLane="0"/>
    <connection from="-107370592#5" to="-5082443#4" fromLane="0" toLane="0"/>
    <connection from="-107370592#5" to="107370592#5" fromLane="0" toLane="0"/>

    <connection from="-107370592#6" to="23704083" fromLane="0" toLane="0"/>
    <connection from="-107370592#6" to="-107370592#5" fromLane="0" toLane="0"/>
    <connection from="-107370592#6" to="-107422479" fromLane="0" toLane="0"/>
    <connection from="-107370592#6" to="107370592#6" fromLane="0" toLane="0"/>

    <connection from="-107370592#7" to="-422983115#1" fromLane="0" toLane="0"/>
    <connection from="-107370592#7" to="-107370592#6" fromLane="0" toLane="0"/>
    <connection from="-107370592#7" to="422983115#2" fromLane="0" toLane="0"/>
    <connection from="-107370592#7" to="107370592#7" fromLane="0" toLane="0"/>

    <connection from="-107370592#8" to="-23704727#1" fromLane="0" toLane="0"/>
    <connection from="-107370592#8" to="-107370592#7" fromLane="0" toLane="0"/>
    <connection from="-107370592#8" to="23704727#2" fromLane="0" toLane="0"/>
    <connection from="-107370592#8" to="107370592#8" fromLane="0" toLane="0"/>

    <connection from="-107370594" to="-43387458#1" fromLane="0" toLane="0"/>
    <connection from="-107370594" to="-107370597#9" fromLane="0" toLane="0"/>
    <connection from="-107370594" to="107370599#0" fromLane="0" toLane="0"/>
    <connection from="-107370594" to="107370594" fromLane="0" toLane="0"/>

    <connection from="-107370597#0" to="-24275128#1" fromLane="0" toLane="0"/>
    <connection from="-107370597#0" to="4920440#0" fromLane="0" toLane="0"/>
    <connection from="-107370597#0" to="107370597#0" fromLane="0" toLane="0"/>

    <connection from="-107370597#1" to="-24275087" fromLane="0" toLane="0"/>
    <connection from="-107370597#1" to="-107370597#0" fromLane="0" toLane="0"/>
    <connection from="-107370597#1" to="107370597#1" fromLane="0" toLane="0"/>

    <connection from="-107370597#2" to="-24275085" fromLane="0" toLane="0"/>
    <connection from="-107370597#2" to="-107370597#1" fromLane="0" toLane="0"/>
    <connection from="-107370597#2" to="107370597#2" fromLane="0" toLane="0"/>

    <connection from="-107370597#3" to="-24275083" fromLane="0" toLane="0"/>
    <connection from="-107370597#3" to="-107370597#2" fromLane="0" toLane="0"/>
    <connection from="-107370597#3" to="107370597#3" fromLane="0" toLane="0"/>

    <connection from="-107370597#4" to="625047049#0" fromLane="0" toLane="0"/>
    <connection from="-107370597#4" to="-107370597#3" fromLane="0" toLane="0"/>
    <connection from="-107370597#4" to="-24275072#4" fromLane="0" toLane="0"/>
    <connection from="-107370597#4" to="107370597#4" fromLane="0" toLane="0"/>

    <connection from="-107370597#5" to="-107370597#4" fromLane="0" toLane="0"/>
    <connection from="-107370597#5" to="-156066219" fromLane="0" toLane="0"/>
    <connection from="-107370597#5" to="107370597#5" fromLane="0" toLane="0"/>

    <connection from="-107370597#6" to="-628237397#2" fromLane="0" toLane="0"/>
    <connection from="-107370597#6" to="-107370597#5" fromLane="0" toLane="0"/>
    <connection from="-107370597#6" to="4920451#0" fromLane="0" toLane="0"/>
    <connection from="-107370597#6" to="107370597#6" fromLane="0" toLane="0"/>

    <connection from="-107370597#7" to="-4920421" fromLane="0" toLane="0"/>
    <connection from="-107370597#7" to="-107370597#6" fromLane="0" toLane="0"/>
    <connection from="-107370597#7" to="107370597#7" fromLane="0" toLane="0"/>

    <connection from="-107370597#8" to="-35482982#1" fromLane="0" toLane="0"/>
    <connection from="-107370597#8" to="-107370597#7" fromLane="0" toLane="0"/>
    <connection from="-107370597#8" to="35482982#2" fromLane="0" toLane="0"/>
    <connection from="-107370597#8" to="107370597#8" fromLane="0" toLane="0"/>

    <connection from="-107370597#9" to="-107370597#8" fromLane="0" toLane="0"/>
    <connection from="-107370597#9" to="4920453#0" fromLane="0" toLane="0"/>
    <connection from="-107370597#9" to="107370597#9" fromLane="0" toLane="0"/>

    <connection from="-107370599#0" to="107370594" fromLane="0" toLane="0"/>
    <connection from="-107370599#0" to="-43387458#1" fromLane="0" toLane="0"/>
    <connection from="-107370599#0" to="-107370597#9" fromLane="0" toLane="0"/>
    <connection from="-107370599#0" to="107370599#0" fromLane="0" toLane="0"/>

    <connection from="-107370599#1" to="-107370599#0" fromLane="0" toLane="0"/>
    <connection from="-107370599#1" to="4920432" fromLane="0" toLane="0"/>
    <connection from="-107370599#1" to="107370599#1" fromLane="0" toLane="0"/>

    <connection from="-107370599#2" to="-107370599#1" fromLane="0" toLane="0"/>
    <connection from="-107370599#2" to="-156066222" fromLane="0" toLane="0"/>
    <connection from="-107370599#2" to="107370599#2" fromLane="0" toLane="0"/>

    <connection from="-107370599#3" to="4920473#0" fromLane="0" toLane="0"/>
    <connection from="-107370599#3" to="-107370599#2" fromLane="0" toLane="0"/>
    <connection from="-107370599#3" to="4920471" fromLane="0" toLane="0"/>
    <connection from="-107370599#3" to="107370599#3" fromLane="0" toLane="0"/>

    <connection from="-107370599#4" to="-4920475" fromLane="0" toLane="0"/>
    <connection from="-107370599#4" to="-107370599#3" fromLane="0" toLane="0"/>
    <connection from="-107370599#4" to="107370599#4" fromLane="0" toLane="0"/>

    <connection from="-107370601" to="107370591" fromLane="0" toLane="0"/>
    <connection from="-107370601" to="-131942159#3" fromLane="0" toLane="0"/>
    <connection from="-107370601" to="107370601" fromLane="0" toLane="0"/>

    <connection from="-107422474#0" to="4920425#1" fromLane="0" toLane="0"/>
    <connection from="-107422474#0" to="-9326424#4" fromLane="0" toLane="0"/>
    <connection from="-107422474#0" to="107422471" fromLane="0" toLane="0"/>
    <connection from="-107422474#0" to="107422474#0" fromLane="0" toLane="0"/>

    <connection from="-107422474#1" to="5082442#0" fromLane="0" toLane="0"/>
    <connection from="-107422474#1" to="-107422474#0" fromLane="0" toLane="0"/>
    <connection from="-107422474#1" to="-23773796#4" fromLane="0" toLane="0"/>
    <connection from="-107422474#1" to="107422474#1" fromLane="0" toLane="0"/>

    <connection from="-107422474#2" to="5082443#0" fromLane="0" toLane="0"/>
    <connection from="-107422474#2" to="-107422474#1" fromLane="0" toLane="0"/>
    <connection from="-107422474#2" to="107422474#2" fromLane="0" toLane="0"/>

    <connection from="-107422475#0" to="-107370592#8" fromLane="0" toLane="0"/>

    <connection from="-107422479" to="-4920365#4" fromLane="0" toLane="0"/>
    <connection from="-107422479" to="-4920748#3" fromLane="0" toLane="0"/>
    <connection from="-107422479" to="107422479" fromLane="0" toLane="0"/>

    <connection from="-107422480" to="-255274251#4" fromLane="0" toLane="0"/>

    <connection from="-108257291#0" to="-389273283" fromLane="0" toLane="0"/>
    <connection from="-108257291#0" to="10587013#0" fromLane="0" toLane="0"/>
    <connection from="-108257291#0" to="389273284#1" fromLane="0" toLane="0"/>
    <connection from="-108257291#0" to="108257291#0" fromLane="0" toLane="0"/>

    <connection from="-108257291#1" to="-116577386" fromLane="0" toLane="0"/>
    <connection from="-108257291#1" to="-108257291#0" fromLane="0" toLane="0"/>
    <connection from="-108257291#1" to="108257291#1" fromLane="0" toLane="0"/>

    <connection from="-11210764#1" to="116540166#0" fromLane="0" toLane="0"/>
    <connection from="-11210764#1" to="206903446#2" fromLane="0" toLane="0"/>
    <connection from="-11210764#1" to="-206903446#1" fromLane="0" toLane="0"/>
    <connection from="-11210764#1" to="11210764#1" fromLane="0" toLane="0"/>

    <connection from="-11210766" to="11210779#3" fromLane="0" toLane="0"/>
    <connection from="-11210766" to="-11210779#2" fromLane="0" toLane="0"/>
    <connection from="-11210766" to="11210766" fromLane="0" toLane="0"/>

    <connection from="-11210767#0" to="-11210770#0" fromLane="0" toLane="0"/>
    <connection from="-11210767#0" to="11210770#1" fromLane="0" toLane="0"/>
    <connection from="-11210767#0" to="11210767#0" fromLane="0" toLane="0"/>

    <connection from="-11210767#1" to="-11210773#1" fromLane="0" toLane="0"/>
    <connection from="-11210767#1" to="-11210767#0" fromLane="0" toLane="0"/>
    <connection from="-11210767#1" to="11210767#1" fromLane="0" toLane="0"/>

    <connection from="-11210767#2" to="-11210767#1" fromLane="0" toLane="0"/>
    <connection from="-11210767#2" to="793369544" fromLane="0" toLane="0"/>
    <connection from="-11210767#2" to="11210767#2" fromLane="0" toLane="0"/>

    <connection from="-11210767#3" to="-11210775#1" fromLane="0" toLane="0"/>
    <connection from="-11210767#3" to="-11210767#2" fromLane="0" toLane="0"/>
    <connection from="-11210767#3" to="11210767#3" fromLane="0" toLane="0"/>

    <connection from="-11210768#1" to="116540166#6" fromLane="0" toLane="0"/>
    <connection from="-11210768#1" to="206903446#8" fromLane="0" toLane="0"/>
    <connection from="-11210768#1" to="-206903446#7" fromLane="0" toLane="0"/>
    <connection from="-11210768#1" to="11210768#1" fromLane="0" toLane="0"/>

    <connection from="-11210768#10" to="11210772#2" fromLane="0" toLane="0"/>
    <connection from="-11210768#10" to="-11210768#9" fromLane="0" toLane="0"/>
    <connection from="-11210768#10" to="-11210772#1" fromLane="0" toLane="0"/>
    <connection from="-11210768#10" to="11210768#10" fromLane="0" toLane="0"/>

    <connection from="-11210768#2" to="-11210768#1" fromLane="0" toLane="0"/>
    <connection from="-11210768#2" to="19503055" fromLane="0" toLane="0"/>
    <connection from="-11210768#2" to="11210768#2" fromLane="0" toLane="0"/>

    <connection from="-11210768#3" to="-19503065#4" fromLane="0" toLane="0"/>
    <connection from="-11210768#3" to="-11210768#2" fromLane="0" toLane="0"/>
    <connection from="-11210768#3" to="11210768#3" fromLane="0" toLane="0"/>

    <connection from="-11210768#4" to="-11210768#3" fromLane="0" toLane="0"/>
    <connection from="-11210768#4" to="-19503055" fromLane="0" toLane="0"/>
    <connection from="-11210768#4" to="11210768#4" fromLane="0" toLane="0"/>

    <connection from="-11210768#5" to="19503089" fromLane="0" toLane="0"/>
    <connection from="-11210768#5" to="-11210768#4" fromLane="0" toLane="0"/>
    <connection from="-11210768#5" to="11210768#5" fromLane="0" toLane="0"/>

    <connection from="-11210768#6" to="19503088#1" fromLane="0" toLane="0"/>
    <connection from="-11210768#6" to="-11210768#5" fromLane="0" toLane="0"/>
    <connection from="-11210768#6" to="-19503088#0" fromLane="0" toLane="0"/>
    <connection from="-11210768#6" to="11210768#6" fromLane="0" toLane="0"/>

    <connection from="-11210768#7" to="19503077#2" fromLane="0" toLane="0"/>
    <connection from="-11210768#7" to="-11210768#6" fromLane="0" toLane="0"/>
    <connection from="-11210768#7" to="-19503077#1" fromLane="0" toLane="0"/>
    <connection from="-11210768#7" to="11210768#7" fromLane="0" toLane="0"/>

    <connection from="-11210768#8" to="19503062#2" fromLane="0" toLane="0"/>
    <connection from="-11210768#8" to="-11210768#7" fromLane="0" toLane="0"/>
    <connection from="-11210768#8" to="-19503062#1" fromLane="0" toLane="0"/>
    <connection from="-11210768#8" to="11210768#8" fromLane="0" toLane="0"/>

    <connection from="-11210768#9" to="19503075#2" fromLane="0" toLane="0"/>
    <connection from="-11210768#9" to="-11210768#8" fromLane="0" toLane="0"/>
    <connection from="-11210768#9" to="-19503075#1" fromLane="0" toLane="0"/>
    <connection from="-11210768#9" to="11210768#9" fromLane="0" toLane="0"/>

    <connection from="-11210770#0" to="11210770#0" fromLane="0" toLane="0"/>

    <connection from="-11210770#1" to="11210767#0" fromLane="0" toLane="0"/>
    <connection from="-11210770#1" to="-11210770#0" fromLane="0" toLane="0"/>
    <connection from="-11210770#1" to="11210770#1" fromLane="0" toLane="0"/>

    <connection from="-11210772#1" to="116540166#2" fromLane="0" toLane="0"/>
    <connection from="-11210772#1" to="206903446#4" fromLane="0" toLane="0"/>
    <connection from="-11210772#1" to="-206903446#3" fromLane="0" toLane="0"/>
    <connection from="-11210772#1" to="11210772#1" fromLane="0" toLane="0"/>

    <connection from="-11210772#2" to="-11210768#9" fromLane="0" toLane="0"/>
    <connection from="-11210772#2" to="-11210772#1" fromLane="0" toLane="0"/>
    <connection from="-11210772#2" to="11210768#10" fromLane="0" toLane="0"/>
    <connection from="-11210772#2" to="11210772#2" fromLane="0" toLane="0"/>

    <connection from="-11210773#1" to="116540166#14" fromLane="0" toLane="0"/>
    <connection from="-11210773#1" to="206903446#16" fromLane="0" toLane="0"/>
    <connection from="-11210773#1" to="19514492" fromLane="0" toLane="0"/>
    <connection from="-11210773#1" to="-206903446#15" fromLane="0" toLane="0"/>
    <connection from="-11210773#1" to="11210773#1" fromLane="0" toLane="0"/>

    <connection from="-11210775#1" to="116540166#15" fromLane="0" toLane="0"/>
    <connection from="-11210775#1" to="206903446#18" fromLane="0" toLane="0"/>
    <connection from="-11210775#1" to="-206903446#17" fromLane="0" toLane="0"/>
    <connection from="-11210775#1" to="11210775#1" fromLane="0" toLane="0"/>

    <connection from="-11210776#1" to="116540166#1" fromLane="0" toLane="0"/>
    <connection from="-11210776#1" to="206903446#3" fromLane="0" toLane="0"/>
    <connection from="-11210776#1" to="-206903446#2" fromLane="0" toLane="0"/>
    <connection from="-11210776#1" to="11210776#1" fromLane="0" toLane="0"/>

    <connection from="-11210776#2" to="-11210768#10" fromLane="0" toLane="0"/>
    <connection from="-11210776#2" to="-11210776#1" fromLane="0" toLane="0"/>
    <connection from="-11210776#2" to="11210778#0" fromLane="0" toLane="0"/>
    <connection from="-11210776#2" to="11210776#2" fromLane="0" toLane="0"/>

    <connection from="-11210776#3" to="-11210776#2" fromLane="0" toLane="0"/>
    <connection from="-11210776#3" to="-19503056#3" fromLane="0" toLane="0"/>
    <connection from="-11210776#3" to="11210776#3" fromLane="0" toLane="0"/>

    <connection from="-11210777" to="382263640#0" fromLane="0" toLane="0"/>
    <connection from="-11210777" to="-24380016#3" fromLane="0" toLane="0"/>
    <connection from="-11210777" to="11210777" fromLane="0" toLane="0"/>

    <connection from="-11210778#0" to="11210776#2" fromLane="0" toLane="0"/>
    <connection from="-11210778#0" to="-11210768#10" fromLane="0" toLane="0"/>
    <connection from="-11210778#0" to="-11210776#1" fromLane="0" toLane="0"/>
    <connection from="-11210778#0" to="11210778#0" fromLane="0" toLane="0"/>

    <connection from="-11210778#1" to="19503087" fromLane="0" toLane="0"/>
    <connection from="-11210778#1" to="-11210778#0" fromLane="0" toLane="0"/>
    <connection from="-11210778#1" to="11210778#1" fromLane="0" toLane="0"/>

    <connection from="-11210778#2" to="19503057" fromLane="0" toLane="0"/>
    <connection from="-11210778#2" to="-11210778#1" fromLane="0" toLane="0"/>
    <connection from="-11210778#2" to="11210778#2" fromLane="0" toLane="0"/>

    <connection from="-11210778#3" to="19503071" fromLane="0" toLane="0"/>
    <connection from="-11210778#3" to="-11210778#2" fromLane="0" toLane="0"/>
    <connection from="-11210778#3" to="11210778#3" fromLane="0" toLane="0"/>

    <connection from="-11210779#0" to="11210779#0" fromLane="0" toLane="0"/>

    <connection from="-11210779#1" to="-11210779#0" fromLane="0" toLane="0"/>
    <connection from="-11210779#1" to="793693587#0" fromLane="0" toLane="0"/>
    <connection from="-11210779#1" to="11210779#1" fromLane="0" toLane="0"/>

    <connection from="-11210779#2" to="-776971070" fromLane="0" toLane="0"/>
    <connection from="-11210779#2" to="-11210779#1" fromLane="0" toLane="0"/>
    <connection from="-11210779#2" to="11210779#2" fromLane="0" toLane="0"/>

    <connection from="-11210779#3" to="-11210779#2" fromLane="0" toLane="0"/>
    <connection from="-11210779#3" to="11210766" fromLane="0" toLane="0"/>
    <connection from="-11210779#3" to="11210779#3" fromLane="0" toLane="0"/>

    <connection from="-11210779#4" to="790395028" fromLane="0" toLane="0"/>
    <connection from="-11210779#4" to="-11210779#3" fromLane="0" toLane="0"/>
    <connection from="-11210779#4" to="11210779#4" fromLane="0" toLane="0"/>

    <connection from="-11210779#5" to="721517829" fromLane="0" toLane="0"/>