<?xml version="1.0" encoding="UTF-8"?>

<!-- generated on 2025-02-05 23:09:03 by Eclipse SUMO netconvert Version 1.19.0
<configuration xmlns:xsi="http://www.w3.org/2001/XMLSchema-instance" xsi:noNamespaceSchemaLocation="http://sumo.dlr.de/xsd/netconvertConfiguration.xsd">

    <input>
        <sumo-net-file value="sourdun.net.xml"/>
    </input>

    <output>
        <plain-output-prefix value="sourdun"/>
    </output>

    <processing>
        <geometry.min-radius.fix.railways value="false"/>
        <geometry.max-grade.fix value="false"/>
        <offset.disable-normalization value="true"/>
        <lefthand value="0"/>
    </processing>

    <junctions>
        <no-turnarounds value="true"/>
        <junctions.corner-detail value="5"/>
        <junctions.limit-turn-speed value="5.50"/>
        <rectangular-lane-cut value="0"/>
    </junctions>

    <pedestrian>
        <walkingareas value="0"/>
    </pedestrian>

</configuration>
-->

<nodes version="1.16" xmlns:xsi="http://www.w3.org/2001/XMLSchema-instance" xsi:noNamespaceSchemaLocation="http://sumo.dlr.de/xsd/nodes_file.xsd">
    <location netOffset="0.00,0.00" convBoundary="521942.14,5370238.74,534590.79,5384029.90" origBoundary="3.297119,48.484753,3.468734,48.608635" projParameter="+proj=utm +zone=31 +ellps=WGS84 +datum=WGS84 +units=m +no_defs"/>

    <node id="10152611759" x="522906.74" y="5377569.39" type="priority"/>
    <node id="10152611760" x="523054.94" y="5377608.39" type="priority"/>
    <node id="10255355052" x="527791.66" y="5375268.27" type="right_before_left"/>
    <node id="10255469398" x="527116.22" y="5375483.41" type="right_before_left"/>
    <node id="10255469400" x="527106.95" y="5375463.46" type="right_before_left"/>
    <node id="10255469404" x="527092.00" y="5375394.11" type="right_before_left"/>
    <node id="10255469408" x="527081.14" y="5375340.59" type="priority"/>
    <node id="10255469409" x="527037.03" y="5375387.84" type="priority"/>
    <node id="10255469410" x="527043.44" y="5375392.87" type="right_before_left"/>
    <node id="10255469417" x="527029.66" y="5375500.69" type="right_before_left"/>
    <node id="10255469422" x="527036.16" y="5375448.02" type="right_before_left"/>
    <node id="10255469557" x="527029.63" y="5375506.82" type="right_before_left"/>
    <node id="10255469562" x="526960.67" y="5375492.76" type="priority"/>
    <node id="10275185650" x="527491.82" y="5375629.99" type="priority"/>
    <node id="10275185651" x="527485.01" y="5375631.93" type="right_before_left"/>
    <node id="1027519719" x="525668.19" y="5376418.55" type="priority"/>
    <node id="1027652083" x="526401.68" y="5377485.94" type="priority"/>
    <node id="1027652086" x="525240.05" y="5373957.78" type="priority"/>
    <node id="1027652092" x="525710.89" y="5375998.84" type="priority"/>
    <node id="1027652098" x="525729.66" y="5376057.05" type="priority"/>
    <node id="1027652099" x="525791.58" y="5376323.69" type="traffic_light" tl="1027652099"/>
    <node id="1027652105" x="526085.99" y="5377089.77" type="priority"/>
    <node id="1027652108" x="525606.11" y="5375525.69" type="priority"/>
    <node id="1027652113" x="525019.26" y="5372656.39" type="priority"/>
    <node id="1027652114" x="525819.83" y="5376455.08" type="priority"/>
    <node id="1027652117" x="525122.72" y="5373261.26" type="priority"/>
    <node id="1027652122" x="525851.54" y="5376585.75" type="priority"/>
    <node id="1027652124" x="525893.78" y="5376702.00" type="priority"/>
    <node id="1027652130" x="525634.61" y="5375703.51" type="priority"/>
    <node id="1027652131" x="525146.87" y="5371880.57" type="priority"/>
    <node id="1028003517" x="528638.48" y="5372106.41" type="priority"/>
    <node id="1028003549" x="527520.81" y="5374436.83" type="priority"/>
    <node id="1028003550" x="528289.03" y="5372660.94" type="priority"/>
    <node id="1028003619" x="526781.01" y="5375828.68" type="priority"/>
    <node id="1028003676" x="528584.87" y="5372221.09" type="priority"/>
    <node id="1028003700" x="527486.68" y="5374551.20" type="priority"/>
    <node id="1028003712" x="528443.86" y="5372486.72" type="priority"/>
    <node id="1028003729" x="526774.87" y="5375855.13" type="priority"/>
    <node id="1028003734" x="527279.80" y="5379157.60" type="priority"/>
    <node id="1028003738" x="528516.69" y="5372328.59" type="priority"/>
    <node id="1028003759" x="528013.76" y="5372916.05" type="priority"/>
    <node id="1028003817" x="527297.26" y="5379810.55" type="dead_end"/>
    <node id="1028003824" x="528759.32" y="5371681.66" type="priority"/>
    <node id="1028003837" x="527872.90" y="5373472.03" type="priority"/>
    <node id="1028003853" x="528686.67" y="5371957.52" type="priority"/>
    <node id="1028003901" x="528510.58" y="5372350.62" type="priority"/>
    <node id="1028123130" x="527100.97" y="5376822.75" type="priority"/>
    <node id="1028123157" x="526238.67" y="5376277.67" type="priority"/>
    <node id="1028123184" x="526885.10" y="5376590.08" type="priority"/>
    <node id="1028123194" x="526368.29" y="5376354.25" type="priority"/>
    <node id="1028123195" x="525994.62" y="5376420.59" type="priority"/>
    <node id="1028123225" x="526432.73" y="5376562.27" type="priority"/>
    <node id="1028123229" x="524762.67" y="5375690.02" type="priority"/>
    <node id="1028123235" x="523446.94" y="5375045.71" type="priority"/>
    <node id="1028123239" x="523213.01" y="5375101.14" type="priority"/>
    <node id="1028123247" x="526351.23" y="5376233.11" type="priority"/>
    <node id="1028123248" x="524840.17" y="5375700.50" type="priority"/>
    <node id="1028123251" x="526122.50" y="5376390.37" type="priority"/>
    <node id="1028123252" x="523653.10" y="5374838.17" type="priority"/>
    <node id="1028123272" x="524220.00" y="5373954.70" type="priority"/>
    <node id="1028123280" x="526075.19" y="5376399.34" type="priority"/>
    <node id="1028158748" x="521942.14" y="5373610.46" type="dead_end"/>
    <node id="10579116121" x="523881.17" y="5379489.94" type="priority"/>
    <node id="10579116122" x="523885.65" y="5379483.51" type="priority"/>
    <node id="1077658760" x="527951.59" y="5377982.71" type="priority"/>
    <node id="1079743007" x="529929.49" y="5375048.50" type="priority"/>
    <node id="1079821723" x="529322.11" y="5375229.25" type="priority"/>
    <node id="1079821800" x="524301.70" y="5375529.08" type="priority"/>
    <node id="1079821820" x="525448.67" y="5372741.58" type="right_before_left"/>
    <node id="1079822030" x="529305.18" y="5375203.15" type="right_before_left"/>
    <node id="10839333883" x="522877.86" y="5378482.38" type="right_before_left"/>
    <node id="10839333884" x="522853.48" y="5378469.21" type="dead_end"/>
    <node id="11039874415" x="529302.99" y="5375834.13" type="right_before_left"/>
    <node id="11039874418" x="529601.67" y="5375992.84" type="right_before_left"/>
    <node id="11039874419" x="529345.09" y="5375618.37" type="priority"/>
    <node id="11039878113" x="530367.93" y="5376705.00" type="right_before_left"/>
    <node id="11039878114" x="530553.79" y="5376790.79" type="right_before_left"/>
    <node id="1111454114" x="526217.24" y="5375994.82" type="traffic_light" tl="1111454114"/>
    <node id="1122619432" x="527518.39" y="5371141.70" type="dead_end"/>
    <node id="1122620856" x="531476.66" y="5372887.78" type="dead_end"/>
    <node id="1122620884" x="527219.93" y="5371707.70" type="dead_end"/>
    <node id="1127013389" x="523926.36" y="5373261.72" type="right_before_left"/>
    <node id="11486198317" x="523993.98" y="5379407.58" type="priority"/>
    <node id="11486198318" x="523997.18" y="5379403.45" type="priority"/>
    <node id="11526081454" x="527645.24" y="5375487.95" type="dead_end"/>
    <node id="11526081455" x="527651.13" y="5375511.16" type="right_before_left"/>
    <node id="1170199362" x="527357.33" y="5379373.71" type="priority"/>
    <node id="1170199390" x="529796.73" y="5384029.90" type="dead_end"/>
    <node id="1170199437" x="527339.78" y="5379366.03" type="priority"/>
    <node id="1170199544" x="524288.85" y="5378058.27" type="priority">
        <param key="crossing:barrier" value="no"/>
        <param key="crossing:light" value="no"/>
    </node>
    <node id="11918621676" x="528082.21" y="5374120.63" type="right_before_left"/>
    <node id="11918621687" x="528280.27" y="5373751.28" type="right_before_left"/>
    <node id="11918621691" x="529846.20" y="5375150.80" type="dead_end"/>
    <node id="11918621692" x="529810.95" y="5375593.25" type="right_before_left"/>
    <node id="11918621695" x="530140.04" y="5375248.90" type="right_before_left"/>
    <node id="11918621701" x="530247.02" y="5374724.08" type="priority"/>
    <node id="11918621702" x="529591.72" y="5376040.63" type="dead_end"/>
    <node id="11918621706" x="529756.61" y="5375568.69" type="right_before_left"/>
    <node id="11918621707" x="529727.34" y="5375648.53" type="priority"/>
    <node id="11918621708" x="529724.66" y="5375657.17" type="priority"/>
    <node id="11918621709" x="530374.27" y="5376683.50" type="right_before_left"/>
    <node id="11918621712" x="530118.14" y="5376643.10" type="dead_end"/>
    <node id="11918621723" x="530797.69" y="5376251.99" type="right_before_left"/>
    <node id="11918621724" x="531082.91" y="5376386.34" type="right_before_left"/>
    <node id="1205584203" x="525171.61" y="5373586.71" type="priority"/>
    <node id="12063881295" x="532353.39" y="5374985.70" type="dead_end"/>
    <node id="12063881355" x="531396.71" y="5374921.01" type="right_before_left"/>
    <node id="12063881370" x="530312.09" y="5374847.10" type="right_before_left"/>
    <node id="12063881394" x="530675.81" y="5374698.30" type="right_before_left"/>
    <node id="12063881406" x="530588.38" y="5374939.06" type="right_before_left"/>
    <node id="12063881418" x="530665.14" y="5374800.78" type="right_before_left"/>
    <node id="12063881489" x="528423.40" y="5374090.23" type="right_before_left"/>
    <node id="12063881491" x="528189.45" y="5373890.57" type="right_before_left"/>
    <node id="12063881493" x="528874.92" y="5374492.99" type="right_before_left"/>
    <node id="12063881494" x="529049.39" y="5374283.36" type="right_before_left"/>
    <node id="12063881495" x="528719.39" y="5374691.97" type="right_before_left"/>
    <node id="12063881497" x="528942.34" y="5374885.16" type="right_before_left"/>
    <node id="12063881513" x="528643.44" y="5375234.80" type="priority"/>
    <node id="12063881514" x="530435.16" y="5374707.04" type="right_before_left"/>
    <node id="12063881673" x="528993.36" y="5375480.29" type="priority"/>
    <node id="12063881674" x="528683.09" y="5375386.21" type="priority"/>
    <node id="12063881675" x="528691.86" y="5375384.10" type="priority"/>
    <node id="12063881692" x="527774.56" y="5372546.86" type="right_before_left"/>
    <node id="12063881693" x="527790.24" y="5372531.91" type="right_before_left"/>
    <node id="12063881694" x="527273.42" y="5372706.64" type="right_before_left"/>
    <node id="12063881706" x="525695.72" y="5372405.15" type="right_before_left"/>
    <node id="12063881707" x="526121.23" y="5372559.42" type="right_before_left"/>
    <node id="12063881714" x="526227.57" y="5372293.38" type="right_before_left"/>
    <node id="12063881716" x="525990.67" y="5372937.10" type="right_before_left"/>
    <node id="12063881719" x="525737.28" y="5372860.29" type="right_before_left"/>
    <node id="12063881738" x="525820.29" y="5372984.56" type="right_before_left"/>
    <node id="12063881743" x="526510.19" y="5373120.09" type="right_before_left"/>
    <node id="12063881747" x="526983.20" y="5373295.88" type="right_before_left"/>
    <node id="12063881752" x="526902.39" y="5373542.94" type="right_before_left"/>
    <node id="12063881756" x="526495.01" y="5373176.04" type="right_before_left"/>
    <node id="12063881776" x="526015.43" y="5372142.08" type="right_before_left"/>
    <node id="12063893906" x="527098.21" y="5373902.08" type="right_before_left"/>
    <node id="12063893911" x="527213.11" y="5373605.82" type="right_before_left"/>
    <node id="12063893916" x="529817.35" y="5375185.05" type="right_before_left"/>
    <node id="1222774765" x="522628.67" y="5376301.02" type="dead_end"/>
    <node id="12390642059" x="523469.29" y="5379647.74" type="priority"/>
    <node id="1532578466" x="525622.08" y="5379465.27" type="priority"/>
    <node id="1532578485" x="523544.74" y="5379612.89" type="priority"/>
    <node id="1532578780" x="529532.03" y="5378685.46" type="priority"/>
    <node id="1532578789" x="525424.31" y="5379678.89" type="priority"/>
    <node id="1532578823" x="524151.57" y="5379517.84" type="priority"/>
    <node id="1532578877" x="529494.06" y="5378810.17" type="priority"/>
    <node id="1532578919" x="525893.31" y="5379475.55" type="priority"/>
    <node id="1532578945" x="527346.54" y="5379595.56" type="priority"/>
    <node id="1532578981" x="525691.32" y="5379008.25" type="right_before_left"/>
    <node id="1532579031" x="529490.43" y="5378046.28" type="priority"/>
    <node id="1532579221" x="527153.25" y="5379659.37" type="priority"/>
    <node id="1532579365" x="524198.54" y="5379991.48" type="dead_end"/>
    <node id="1532579426" x="527927.44" y="5380224.71" type="rail_crossing">
        <param key="crossing:barrier" value="half"/>
        <param key="crossing:light" value="yes"/>
    </node>
    <node id="1532579486" x="523461.66" y="5379614.29" type="priority"/>
    <node id="1532579530" x="529488.95" y="5378600.10" type="priority"/>
    <node id="1532579542" x="525364.50" y="5379825.49" type="dead_end"/>
    <node id="1532579611" x="525536.80" y="5379481.28" type="priority"/>
    <node id="1532579629" x="525262.25" y="5379634.72" type="priority"/>
    <node id="1532579673" x="525716.95" y="5379820.53" type="priority"/>
    <node id="1532579745" x="529483.92" y="5378767.62" type="priority"/>
    <node id="1538520556" x="523025.92" y="5375137.49" type="priority"/>
    <node id="1538520569" x="522788.51" y="5375115.99" type="dead_end"/>
    <node id="1539186426" x="522893.73" y="5375525.03" type="priority"/>
    <node id="1539186427" x="522445.07" y="5375409.03" type="dead_end"/>
    <node id="1539186453" x="522695.88" y="5375329.64" type="priority"/>
    <node id="1539194321" x="522999.09" y="5375186.85" type="priority"/>
    <node id="1663572701" x="522804.42" y="5377569.55" type="dead_end"/>
    <node id="1663572714" x="522733.54" y="5377775.70" type="dead_end"/>
    <node id="1720360578" x="529180.67" y="5370756.18" type="dead_end"/>
    <node id="1730155640" x="525588.70" y="5370238.74" type="dead_end"/>
    <node id="1730369251" x="523082.42" y="5374858.11" type="priority"/>
    <node id="1730369499" x="523114.84" y="5374893.47" type="priority"/>
    <node id="1730369676" x="523397.25" y="5374925.68" type="priority"/>
    <node id="1730369914" x="523419.31" y="5374985.71" type="priority"/>
    <node id="1730370027" x="523420.80" y="5374992.96" type="priority"/>
    <node id="1730370910" x="523565.04" y="5375084.17" type="priority"/>
    <node id="1730371432" x="522910.09" y="5375114.01" type="priority"/>
    <node id="1730371708" x="523768.97" y="5375132.39" type="priority"/>
    <node id="1730371907" x="523558.57" y="5375144.18" type="priority"/>
    <node id="1730372079" x="523081.35" y="5375152.33" type="priority"/>
    <node id="1730372142" x="523511.24" y="5375158.37" type="dead_end"/>
    <node id="1730372364" x="523170.32" y="5375168.90" type="priority"/>
    <node id="1730373946" x="523116.69" y="5375375.05" type="priority"/>
    <node id="1730373969" x="523128.86" y="5375400.90" type="priority"/>
    <node id="1730373979" x="523284.03" y="5375428.75" type="dead_end"/>
    <node id="1730374086" x="523001.72" y="5375474.57" type="priority"/>
    <node id="1730374126" x="523183.10" y="5375509.83" type="priority"/>
    <node id="1730374310" x="523130.43" y="5375630.00" type="priority"/>
    <node id="1730374430" x="523026.27" y="5375820.04" type="priority"/>
    <node id="1730989402" x="530825.51" y="5371746.30" type="dead_end"/>
    <node id="1730990431" x="530936.11" y="5371909.62" type="dead_end"/>
    <node id="1730990444" x="530665.69" y="5371911.14" type="priority"/>
    <node id="1730991489" x="528305.25" y="5372183.36" type="dead_end"/>
    <node id="1730991515" x="529852.91" y="5372197.25" type="priority"/>
    <node id="1730991823" x="528362.12" y="5372211.68" type="priority"/>
    <node id="1730992639" x="528317.82" y="5372270.19" type="priority"/>
    <node id="1730992935" x="528455.12" y="5372304.74" type="priority"/>
    <node id="1730993440" x="528572.64" y="5372368.24" type="priority"/>
    <node id="1730994114" x="530479.33" y="5372439.48" type="priority"/>
    <node id="1730994666" x="528673.93" y="5372523.87" type="priority"/>
    <node id="1730995138" x="529105.39" y="5372566.31" type="priority"/>
    <node id="1730995258" x="528713.91" y="5372572.99" type="priority"/>
    <node id="1730995491" x="528863.53" y="5372591.66" type="priority"/>
    <node id="1730995611" x="528761.63" y="5372602.37" type="priority"/>
    <node id="1730996487" x="529025.45" y="5372757.57" type="priority"/>
    <node id="1730996744" x="528989.84" y="5372832.99" type="priority"/>
    <node id="1730996992" x="528925.78" y="5372888.19" type="priority"/>
    <node id="1730996998" x="529053.33" y="5372892.76" type="priority"/>
    <node id="1730997172" x="528843.43" y="5373015.70" type="priority"/>
    <node id="1863767034" x="524108.95" y="5377469.48" type="priority"/>
    <node id="1863767052" x="531467.43" y="5373470.40" type="priority"/>
    <node id="1863767064" x="525473.30" y="5376568.80" type="priority"/>
    <node id="1863767102" x="529035.29" y="5375299.60" type="priority"/>
    <node id="1863767110" x="527839.42" y="5375593.51" type="priority"/>
    <node id="1863767118" x="531782.35" y="5373144.71" type="dead_end"/>
    <node id="1863767126" x="527304.55" y="5375722.77" type="priority"/>
    <node id="1863767142" x="527503.07" y="5375675.55" type="priority"/>
    <node id="2023683285" x="523598.59" y="5377643.43" type="priority"/>
    <node id="2023683291" x="523603.66" y="5377659.14" type="priority"/>
    <node id="2023683308" x="523408.23" y="5377656.97" type="priority"/>
    <node id="2025153370" x="522812.74" y="5378454.12" type="dead_end"/>
    <node id="2025153390" x="522930.73" y="5378481.66" type="right_before_left"/>
    <node id="2025153393" x="522875.29" y="5378487.33" type="right_before_left"/>
    <node id="2025153414" x="522869.91" y="5378497.52" type="right_before_left"/>
    <node id="2025153427" x="522862.64" y="5378511.63" type="right_before_left"/>
    <node id="2025153435" x="522855.23" y="5378525.80" type="right_before_left"/>
    <node id="2025153438" x="522848.80" y="5378538.22" type="priority"/>
    <node id="2025153447" x="522886.80" y="5378560.96" type="right_before_left"/>
    <node id="2025153458" x="522918.40" y="5378587.50" type="dead_end"/>
    <node id="2025263900" x="522388.49" y="5378109.88" type="dead_end"/>
    <node id="2025263978" x="523575.70" y="5378429.30" type="priority"/>
    <node id="2025264000" x="522994.85" y="5378459.35" type="priority"/>
    <node id="2117866997" x="523086.98" y="5375112.40" type="priority"/>
    <node id="2127408872" x="528118.10" y="5372989.46" type="right_before_left"/>
    <node id="2127408874" x="528838.30" y="5373253.74" type="right_before_left"/>
    <node id="2127408884" x="529998.86" y="5374350.43" type="right_before_left"/>
    <node id="2127433724" x="525709.28" y="5371923.75" type="priority"/>
    <node id="2127661495" x="527946.01" y="5372887.61" type="right_before_left"/>
    <node id="2148032477" x="527589.60" y="5375098.85" type="priority"/>
    <node id="2148032485" x="527611.19" y="5375186.95" type="right_before_left"/>
    <node id="2148032514" x="527392.04" y="5375258.65" type="right_before_left"/>
    <node id="2148032518" x="527372.80" y="5375266.81" type="right_before_left"/>
    <node id="2148032525" x="527308.09" y="5375294.12" type="right_before_left"/>
    <node id="2148032540" x="527254.60" y="5375347.16" type="right_before_left"/>
    <node id="2148032544" x="527651.12" y="5375349.92" type="right_before_left"/>
    <node id="2148032546" x="527451.78" y="5375353.44" type="dead_end"/>
    <node id="2148032548" x="527397.59" y="5375365.53" type="right_before_left"/>
    <node id="2148032557" x="527408.65" y="5375409.50" type="right_before_left"/>
    <node id="2148032574" x="527251.72" y="5375448.07" type="priority"/>
    <node id="2148032576" x="527308.71" y="5375451.53" type="dead_end"/>
    <node id="2148032583" x="527426.09" y="5375478.94" type="right_before_left"/>
    <node id="2148032587" x="527758.47" y="5375497.09" type="priority"/>
    <node id="2148032606" x="527688.20" y="5375501.32" type="right_before_left"/>
    <node id="2148032611" x="527577.38" y="5375504.09" type="dead_end"/>
    <node id="2148032614" x="527403.12" y="5375503.71" type="dead_end"/>
    <node id="2148032619" x="527806.48" y="5375506.83" type="dead_end"/>
    <node id="2148032622" x="527322.21" y="5375504.31" type="right_before_left"/>
    <node id="2148032628" x="527691.01" y="5375513.23" type="right_before_left"/>
    <node id="2148032635" x="527276.48" y="5375515.41" type="priority"/>
    <node id="2148032639" x="527582.93" y="5375527.22" type="right_before_left"/>
    <node id="2148032642" x="527304.27" y="5375525.29" type="dead_end"/>
    <node id="2148032653" x="527473.15" y="5375554.24" type="priority"/>
    <node id="2148032655" x="527415.72" y="5375554.64" type="right_before_left"/>
    <node id="2148032659" x="527446.11" y="5375560.89" type="right_before_left"/>
    <node id="2148032665" x="527319.09" y="5375578.52" type="right_before_left"/>
    <node id="2148032667" x="527299.97" y="5375583.12" type="right_before_left"/>
    <node id="2148032671" x="527481.38" y="5375587.59" type="priority"/>
    <node id="2148032684" x="527454.32" y="5375594.51" type="right_before_left"/>
    <node id="2148032686" x="527420.68" y="5375603.11" type="right_before_left"/>
    <node id="2148032688" x="527488.30" y="5375615.67" type="priority"/>
    <node id="2148032705" x="527405.71" y="5375665.42" type="right_before_left"/>
    <node id="2148032718" x="526670.39" y="5375879.77" type="priority"/>
    <node id="2148032720" x="526609.11" y="5375894.91" type="priority"/>
    <node id="2148032727" x="525709.94" y="5375994.57" type="priority"/>
    <node id="2148032738" x="525922.77" y="5376017.33" type="priority"/>
    <node id="2273903529" x="522501.15" y="5373170.08" type="dead_end"/>
    <node id="2273932012" x="522596.89" y="5373064.18" type="dead_end"/>
    <node id="2275251497" x="523128.19" y="5372751.21" type="priority"/>
    <node id="2275251518" x="523022.12" y="5372850.39" type="priority"/>
    <node id="2275251531" x="522916.97" y="5372882.52" type="priority"/>
    <node id="2275251537" x="524471.60" y="5372934.37" type="priority"/>
    <node id="2275251539" x="523606.44" y="5372935.17" type="priority"/>
    <node id="2275251604" x="523968.00" y="5373071.09" type="priority"/>
    <node id="2275251628" x="524957.84" y="5373283.83" type="priority"/>
    <node id="2275275727" x="522922.09" y="5373372.00" type="right_before_left"/>
    <node id="2275291767" x="522944.34" y="5371816.14" type="dead_end"/>
    <node id="2275291791" x="523495.90" y="5372007.99" type="priority"/>
    <node id="2275291840" x="523128.22" y="5372743.59" type="priority"/>
    <node id="2275291842" x="522941.18" y="5372750.99" type="right_before_left"/>
    <node id="2275291853" x="522434.57" y="5372768.25" type="dead_end"/>
    <node id="2466457093" x="523349.65" y="5375847.16" type="priority"/>
    <node id="2466457096" x="525126.34" y="5375880.03" type="priority"/>
    <node id="2466457104" x="525300.30" y="5375989.03" type="priority"/>
    <node id="2466457107" x="523580.17" y="5376044.90" type="right_before_left"/>
    <node id="2466457125" x="523933.87" y="5376203.43" type="priority"/>
    <node id="2466457128" x="522925.20" y="5376226.96" type="priority"/>
    <node id="2466457139" x="523412.58" y="5376299.50" type="right_before_left"/>
    <node id="2466457140" x="523417.15" y="5376300.56" type="right_before_left"/>
    <node id="2466457155" x="524380.21" y="5376445.94" type="priority"/>
    <node id="2466457160" x="524646.57" y="5376478.59" type="dead_end"/>
    <node id="2466457172" x="524476.91" y="5376525.48" type="priority"/>
    <node id="2466457176" x="524774.23" y="5376542.53" type="priority"/>
    <node id="2466457177" x="524506.75" y="5376547.12" type="priority"/>
    <node id="2466457186" x="523687.50" y="5376612.77" type="right_before_left"/>
    <node id="2466457193" x="524660.90" y="5376698.56" type="priority"/>
    <node id="2466457206" x="523123.08" y="5376763.34" type="dead_end"/>
    <node id="2466457215" x="524240.47" y="5376883.54" type="right_before_left"/>
    <node id="2466457217" x="525054.12" y="5376893.46" type="priority"/>
    <node id="2466457219" x="524253.31" y="5376891.15" type="right_before_left"/>
    <node id="2466457229" x="522705.45" y="5377019.51" type="dead_end"/>
    <node id="2466457240" x="524722.78" y="5377149.14" type="priority"/>
    <node id="2466461231" x="522596.43" y="5373347.23" type="dead_end"/>
    <node id="2466474776" x="523439.51" y="5373441.70" type="right_before_left"/>
    <node id="2466474782" x="522853.14" y="5373609.98" type="right_before_left"/>
    <node id="2466474802" x="523696.50" y="5373743.49" type="right_before_left"/>
    <node id="2466474810" x="522788.27" y="5373834.54" type="right_before_left"/>
    <node id="2466474861" x="523216.25" y="5374383.62" type="right_before_left"/>
    <node id="2466474872" x="523794.74" y="5374409.58" type="priority"/>
    <node id="2466474881" x="522956.48" y="5374491.87" type="right_before_left"/>
    <node id="2466474883" x="523684.46" y="5374525.64" type="priority"/>
    <node id="2466474885" x="522824.66" y="5374527.21" type="priority"/>
    <node id="2466474891" x="522986.04" y="5374605.14" type="right_before_left"/>
    <node id="2466474914" x="523048.24" y="5374829.11" type="priority"/>
    <node id="2466474916" x="523483.77" y="5374834.84" type="priority"/>
    <node id="2466502180" x="524695.80" y="5374288.96" type="right_before_left"/>
    <node id="2466502190" x="525458.23" y="5374587.27" type="priority"/>
    <node id="2466502201" x="524963.66" y="5374657.21" type="right_before_left"/>
    <node id="2466502221" x="524549.06" y="5375190.39" type="right_before_left"/>
    <node id="2466502223" x="524534.18" y="5375219.15" type="right_before_left"/>
    <node id="2466502234" x="524793.72" y="5375261.23" type="right_before_left"/>
    <node id="2466502238" x="525567.09" y="5375265.78" type="priority"/>
    <node id="2466502255" x="524518.33" y="5376210.76" type="dead_end"/>
    <node id="2466502256" x="524435.31" y="5376238.59" type="dead_end"/>
    <node id="2466502257" x="524690.92" y="5376243.65" type="priority"/>
    <node id="2466502260" x="524563.55" y="5376268.55" type="dead_end"/>
    <node id="2466593939" x="525771.30" y="5375666.07" type="priority"/>
    <node id="2466593948" x="525845.31" y="5375693.35" type="priority"/>
    <node id="2466593952" x="525636.99" y="5375706.35" type="priority"/>
    <node id="2466593958" x="526261.75" y="5375722.64" type="priority"/>
    <node id="2466593961" x="526325.07" y="5375745.40" type="dead_end"/>
    <node id="2466593968" x="525999.22" y="5375761.07" type="priority"/>
    <node id="2466593970" x="526537.91" y="5375766.18" type="dead_end"/>
    <node id="2466593974" x="526321.37" y="5375778.90" type="priority"/>
    <node id="2466593980" x="525830.98" y="5375800.47" type="priority"/>
    <node id="2466593992" x="526534.72" y="5375815.82" type="priority"/>
    <node id="2466593994" x="526369.73" y="5375817.11" type="priority"/>
    <node id="2466594000" x="526323.74" y="5375817.28" type="priority"/>
    <node id="2466594014" x="526281.36" y="5375823.07" type="priority"/>
    <node id="2466594019" x="526555.86" y="5375827.12" type="priority"/>
    <node id="2466594021" x="526257.87" y="5375828.87" type="priority"/>
    <node id="2466594030" x="526177.32" y="5375857.82" type="priority"/>
    <node id="2466594032" x="526086.83" y="5375864.16" type="priority"/>
    <node id="2466594034" x="526686.97" y="5375875.67" type="priority"/>
    <node id="2466594035" x="525957.43" y="5375873.15" type="priority"/>
    <node id="2466594043" x="525794.28" y="5375894.66" type="priority"/>
    <node id="2466594046" x="525690.45" y="5375900.77" type="priority"/>
    <node id="2466594050" x="526355.86" y="5375955.74" type="priority"/>
    <node id="2466594052" x="526532.79" y="5375970.32" type="priority"/>
    <node id="2466594055" x="525803.90" y="5375999.77" type="priority"/>
    <node id="2466594061" x="525497.06" y="5376034.73" type="priority"/>
    <node id="2466594062" x="525482.77" y="5376034.75" type="priority"/>
    <node id="2466594065" x="526141.70" y="5376048.81" type="priority"/>
    <node id="2466594066" x="526139.65" y="5376050.25" type="priority"/>
    <node id="2466594067" x="526367.26" y="5376055.83" type="priority"/>
    <node id="2466594069" x="525917.81" y="5376052.29" type="priority"/>
    <node id="2466594074" x="526553.01" y="5376069.27" type="priority"/>
    <node id="2466594076" x="525696.80" y="5376067.63" type="priority"/>
    <node id="2466594081" x="525912.74" y="5376072.47" type="priority"/>
    <node id="2466594083" x="526374.84" y="5376078.56" type="priority"/>
    <node id="2466594085" x="526451.66" y="5376085.94" type="priority"/>
    <node id="2466594091" x="526456.64" y="5376107.14" type="dead_end"/>
    <node id="2466594092" x="525743.54" y="5376106.72" type="priority"/>
    <node id="2466594098" x="526424.11" y="5376139.64" type="dead_end"/>