<?xml version="1.0" encoding="UTF-8"?>

<!-- generated on 2025-02-05 23:09:03 by Eclipse SUMO netconvert Version 1.19.0
<configuration xmlns:xsi="http://www.w3.org/2001/XMLSchema-instance" xsi:noNamespaceSchemaLocation="http://sumo.dlr.de/xsd/netconvertConfiguration.xsd">

    <input>
        <sumo-net-file value="sourdun.net.xml"/>
    </input>

    <output>
        <plain-output-prefix value="sourdun"/>
    </output>

    <processing>
        <geometry.min-radius.fix.railways value="false"/>
        <geometry.max-grade.fix value="false"/>
        <offset.disable-normalization value="true"/>
        <lefthand value="0"/>
    </processing>

    <junctions>
        <no-turnarounds value="true"/>
        <junctions.corner-detail value="5"/>
        <junctions.limit-turn-speed value="5.50"/>
        <rectangular-lane-cut value="0"/>
    </junctions>

    <pedestrian>
        <walkingareas value="0"/>
    </pedestrian>

</configuration>
-->

<connections version="1.16" xmlns:xsi="http://www.w3.org/2001/XMLSchema-instance" xsi:noNamespaceSchemaLocation="http://sumo.dlr.de/xsd/connections_file.xsd">
    <connection from="-1002402280"/>

    <connection from="-1024007862" to="-432413375#5" fromLane="0" toLane="0"/>
    <connection from="-1024007862" to="-1302592461" fromLane="0" toLane="0"/>
    <connection from="-1024007862" to="432413375#6" fromLane="0" toLane="0"/>

    <connection from="-1024007863#0" to="-432413375#6" fromLane="0" toLane="0"/>
    <connection from="-1024007863#0" to="-1302590889#3" fromLane="0" toLane="0"/>
    <connection from="-1024007863#0" to="432413375#7" fromLane="0" toLane="0"/>

    <connection from="-1024007863#1" to="1302590884#0" fromLane="0" toLane="0"/>
    <connection from="-1024007863#1" to="-1024007863#0" fromLane="0" toLane="0"/>

    <connection from="-1024007863#2" to="1302590885" fromLane="0" toLane="0"/>
    <connection from="-1024007863#2" to="-1024007863#1" fromLane="0" toLane="0"/>

    <connection from="-1024007864#0" to="-1024007865#0" fromLane="0" toLane="0"/>
    <connection from="-1024007864#0" to="1024007865#1" fromLane="0" toLane="0"/>

    <connection from="-1024007864#1" to="-1024007863#2" fromLane="0" toLane="0"/>
    <connection from="-1024007864#1" to="-1024007864#0" fromLane="0" toLane="0"/>

    <connection from="-1024007864#2" to="-1302590884#1" fromLane="0" toLane="0"/>
    <connection from="-1024007864#2" to="-1024007864#1" fromLane="0" toLane="0"/>

    <connection from="-1024007865#0"/>

    <connection from="-1024007865#1" to="1024007864#0" fromLane="0" toLane="0"/>
    <connection from="-1024007865#1" to="-1024007865#0" fromLane="0" toLane="0"/>

    <connection from="-1024007868#0" to="-599706517#0" fromLane="0" toLane="0"/>
    <connection from="-1024007868#0" to="599706517#1" fromLane="0" toLane="0"/>

    <connection from="-1024007868#1" to="-1024007868#0" fromLane="0" toLane="0"/>
    <connection from="-1024007868#1" to="-1024007868#2" fromLane="0" toLane="0"/>

    <connection from="-1024007868#2" to="-1024007868#1" fromLane="0" toLane="0"/>

    <connection from="-1024007869" to="-1024007870#0" fromLane="0" toLane="0"/>
    <connection from="-1024007869" to="1024007870#1" fromLane="0" toLane="0"/>

    <connection from="-1024007870#0" to="202799329#1" fromLane="0" toLane="0"/>
    <connection from="-1024007870#0" to="-202799329#0" fromLane="0" toLane="0"/>

    <connection from="-1024007870#1" to="1024007869" fromLane="0" toLane="0"/>
    <connection from="-1024007870#1" to="-1024007870#0" fromLane="0" toLane="0"/>

    <connection from="-1024007874" to="243957914#2" fromLane="0" toLane="0"/>
    <connection from="-1024007874" to="-243957914#1" fromLane="0" toLane="0"/>

    <connection from="-1024333780" to="346016604#2" fromLane="0" toLane="0"/>
    <connection from="-1024333780" to="-346016604#1" fromLane="0" toLane="0"/>

    <connection from="-1025244221#0"/>

    <connection from="-1025244221#1" to="-376643261#4" fromLane="0" toLane="0"/>
    <connection from="-1025244221#1" to="-1025244221#0" fromLane="0" toLane="0"/>
    <connection from="-1025244221#1" to="376643261#5" fromLane="0" toLane="0"/>

    <connection from="-1025244221#2" to="-1025244221#1" fromLane="0" toLane="0"/>
    <connection from="-1025244221#2" to="-1302592481" fromLane="0" toLane="0"/>

    <connection from="-1025244222" to="-161032398#0" fromLane="0" toLane="0"/>
    <connection from="-1025244222" to="161032398#1" fromLane="0" toLane="0"/>

    <connection from="-1025244223" to="-161032399#4" fromLane="0" toLane="0"/>
    <connection from="-1025244223" to="-494235945#2" fromLane="0" toLane="0"/>
    <connection from="-1025244223" to="140423859" fromLane="0" toLane="0"/>

    <connection from="-1025244224" to="-494235945#0" fromLane="0" toLane="0"/>
    <connection from="-1025244224" to="494235945#1" fromLane="0" toLane="0"/>

    <connection from="-1025244225" to="-238848109#0" fromLane="0" toLane="0"/>
    <connection from="-1025244225" to="238848109#1" fromLane="0" toLane="0"/>

    <connection from="-1025244226" to="319779139#1" fromLane="0" toLane="0"/>
    <connection from="-1025244226" to="-319779139#0" fromLane="0" toLane="0"/>

    <connection from="-1025244227" to="376797372#2" fromLane="0" toLane="0"/>
    <connection from="-1025244227" to="-376797372#1" fromLane="0" toLane="0"/>

    <connection from="-1025244228" to="376797372#3" fromLane="0" toLane="0"/>
    <connection from="-1025244228" to="-376797372#2" fromLane="0" toLane="0"/>

    <connection from="-1025244231" to="-140489310#1" fromLane="0" toLane="0"/>
    <connection from="-1025244231" to="140489310#2" fromLane="0" toLane="0"/>

    <connection from="-1025244232" to="-319779132#1" fromLane="0" toLane="0"/>
    <connection from="-1025244232" to="-140489310#2" fromLane="0" toLane="0"/>
    <connection from="-1025244232" to="494235945#0" fromLane="0" toLane="0"/>

    <connection from="-104488868#0" to="-88468246#4" fromLane="0" toLane="0"/>

    <connection from="-104488868#1" to="-238850918#2" fromLane="0" toLane="0"/>
    <connection from="-104488868#1" to="-104488868#0" fromLane="0" toLane="0"/>

    <connection from="-104488868#2" to="-104488868#1" fromLane="0" toLane="0"/>
    <connection from="-104488868#2" to="544531564#0" fromLane="0" toLane="0"/>

    <connection from="-104488868#3" to="-238850921" fromLane="0" toLane="0"/>
    <connection from="-104488868#3" to="-104488868#2" fromLane="0" toLane="0"/>

    <connection from="-104488868#4" to="-104488868#3" fromLane="0" toLane="0"/>
    <connection from="-104488868#4" to="544531556" fromLane="0" toLane="0"/>

    <connection from="-104488868#5" to="-104488868#4" fromLane="0" toLane="0"/>
    <connection from="-104488868#5" to="931150041#0" fromLane="0" toLane="0"/>

    <connection from="-104488868#6" to="-238850913#1" fromLane="0" toLane="0"/>
    <connection from="-104488868#6" to="-104488868#5" fromLane="0" toLane="0"/>

    <connection from="-1057732934"/>

    <connection from="-1057732935#0" to="-88463346#2" fromLane="0" toLane="0"/>
    <connection from="-1057732935#0" to="88463346#3" fromLane="0" toLane="0"/>

    <connection from="-1057732935#1" to="-1057732935#0" fromLane="0" toLane="0"/>

    <connection from="-1057732935#2" to="238860359" fromLane="0" toLane="0"/>
    <connection from="-1057732935#2" to="-1057732935#1" fromLane="0" toLane="0"/>

    <connection from="-1057732937#0" to="-376643249#10" fromLane="0" toLane="0"/>
    <connection from="-1057732937#0" to="376643249#11" fromLane="0" toLane="0"/>

    <connection from="-1057732937#1" to="-1057732937#0" fromLane="0" toLane="0"/>

    <connection from="-1057732937#2" to="1057732938" fromLane="0" toLane="0"/>
    <connection from="-1057732937#2" to="-1057732937#1" fromLane="0" toLane="0"/>

    <connection from="-1057732939#0" to="95927532#5" fromLane="0" toLane="0"/>
    <connection from="-1057732939#0" to="-95927532#4" fromLane="0" toLane="0"/>

    <connection from="-1057732939#1" to="-1057732939#0" fromLane="0" toLane="0"/>
    <connection from="-1057732939#1" to="-1057732939#2" fromLane="0" toLane="0"/>

    <connection from="-1057732939#2" to="-1057732939#1" fromLane="0" toLane="0"/>

    <connection from="-1057732944" to="-95927532#3" fromLane="0" toLane="0"/>
    <connection from="-1057732944" to="95927532#4" fromLane="0" toLane="0"/>

    <connection from="-1057732945" to="161103215#7" fromLane="0" toLane="0"/>
    <connection from="-1057732945" to="-161103215#6" fromLane="0" toLane="0"/>

    <connection from="-1057732946#0" to="-1057732947#0" fromLane="0" toLane="0"/>
    <connection from="-1057732946#0" to="1057732947#1" fromLane="0" toLane="0"/>

    <connection from="-1057732946#1" to="-1057732945" fromLane="0" toLane="0"/>
    <connection from="-1057732946#1" to="-1057732946#0" fromLane="0" toLane="0"/>

    <connection from="-1057732947#0" to="161103215#4" fromLane="0" toLane="0"/>
    <connection from="-1057732947#0" to="-161103215#3" fromLane="0" toLane="0"/>

    <connection from="-1057732947#1" to="1057732946#0" fromLane="0" toLane="0"/>
    <connection from="-1057732947#1" to="-1057732947#0" fromLane="0" toLane="0"/>

    <connection from="-1057732948" to="879174224#1" fromLane="0" toLane="0"/>
    <connection from="-1057732948" to="-879174224#0" fromLane="0" toLane="0"/>

    <connection from="-1057732949" to="161103213#2" fromLane="0" toLane="0"/>
    <connection from="-1057732949" to="-161103213#1" fromLane="0" toLane="0"/>

    <connection from="-1057732950" to="548994600#1" fromLane="0" toLane="0"/>
    <connection from="-1057732950" to="-548994600#0" fromLane="0" toLane="0"/>

    <connection from="-1057732951" to="548994598#1" fromLane="0" toLane="0"/>
    <connection from="-1057732951" to="-548994598#0" fromLane="0" toLane="0"/>

    <connection from="-1057732952" to="-1057732954#0" fromLane="0" toLane="0"/>
    <connection from="-1057732952" to="1057732954#1" fromLane="0" toLane="0"/>

    <connection from="-1057732954#0" to="-161103215#4" fromLane="0" toLane="0"/>
    <connection from="-1057732954#0" to="161103215#5" fromLane="0" toLane="0"/>

    <connection from="-1057732954#1" to="1057732952" fromLane="0" toLane="0"/>
    <connection from="-1057732954#1" to="-1057732954#0" fromLane="0" toLane="0"/>

    <connection from="-1057732955"/>

    <connection from="-1057732959#0"/>

    <connection from="-1057732959#1" to="-1057732959#0" fromLane="0" toLane="0"/>

    <connection from="-1057732960" to="-161103215#0" fromLane="0" toLane="0"/>
    <connection from="-1057732960" to="161103215#1" fromLane="0" toLane="0"/>

    <connection from="-1057732961"/>

    <connection from="-1057740880"/>

    <connection from="-106219261" to="319779131" fromLane="0" toLane="0"/>
    <connection from="-106219261" to="-36936997#2" fromLane="0" toLane="0"/>

    <connection from="-1082337430" to="1082337431#1" fromLane="0" toLane="0"/>
    <connection from="-1082337430" to="-1082337431#0" fromLane="0" toLane="0"/>

    <connection from="-1082337431#0" to="-671928273#3" fromLane="0" toLane="0"/>

    <connection from="-1082337431#1" to="-1082337431#0" fromLane="0" toLane="0"/>
    <connection from="-1082337431#1" to="1082337430" fromLane="0" toLane="0"/>

    <connection from="-1082337435" to="1082337434#0" fromLane="0" toLane="0"/>

    <connection from="-1082337436#0" to="88463346#11" fromLane="0" toLane="0"/>
    <connection from="-1082337436#0" to="-88463346#10" fromLane="0" toLane="0"/>

    <connection from="-1082337436#1" to="-1082337436#0" fromLane="0" toLane="0"/>

    <connection from="-1102935206" to="376734278#0" fromLane="0" toLane="0"/>
    <connection from="-1102935206" to="-953929766#1" fromLane="0" toLane="0"/>

    <connection from="-1109772709" to="-599886769" fromLane="0" toLane="0"/>

    <connection from="-1109772710" to="1109772706" fromLane="0" toLane="0"/>

    <connection from="-1121192390" to="-1121192392" fromLane="0" toLane="0"/>
    <connection from="-1121192390" to="-476902291#4" fromLane="0" toLane="0"/>

    <connection from="-1121192391" to="-476902291#3" fromLane="0" toLane="0"/>
    <connection from="-1121192391" to="476902291#4" fromLane="0" toLane="0"/>

    <connection from="-1121192392" to="476902293#0" fromLane="0" toLane="0"/>
    <connection from="-1121192392" to="-1121192391" fromLane="0" toLane="0"/>

    <connection from="-1121203644#0" to="-1121203647#0" fromLane="0" toLane="0"/>
    <connection from="-1121203644#0" to="1121203647#1" fromLane="0" toLane="0"/>

    <connection from="-1121203644#1" to="-1121203644#0" fromLane="0" toLane="0"/>
    <connection from="-1121203644#1" to="-1121203646" fromLane="0" toLane="0"/>

    <connection from="-1121203644#2" to="1121203659" fromLane="0" toLane="0"/>
    <connection from="-1121203644#2" to="-1121203644#1" fromLane="0" toLane="0"/>

    <connection from="-1121203644#3" to="-1121203644#2" fromLane="0" toLane="0"/>
    <connection from="-1121203644#3" to="1121203646" fromLane="0" toLane="0"/>

    <connection from="-1121203644#4" to="-1121203644#3" fromLane="0" toLane="0"/>
    <connection from="-1121203644#4" to="-1121203647#1" fromLane="0" toLane="0"/>

    <connection from="-1121203644#5" to="-1121203644#4" fromLane="0" toLane="0"/>
    <connection from="-1121203644#5" to="-1121203645#1" fromLane="0" toLane="0"/>

    <connection from="-1121203645#0" to="-88509256#4" fromLane="0" toLane="0"/>
    <connection from="-1121203645#0" to="88509256#5" fromLane="0" toLane="0"/>

    <connection from="-1121203645#1" to="1121203647#0" fromLane="0" toLane="0"/>
    <connection from="-1121203645#1" to="-1121203645#0" fromLane="0" toLane="0"/>

    <connection from="-1121203646" to="1121203644#3" fromLane="0" toLane="0"/>
    <connection from="-1121203646" to="-1121203644#2" fromLane="0" toLane="0"/>

    <connection from="-1121203647#0" to="-1121203645#0" fromLane="0" toLane="0"/>
    <connection from="-1121203647#0" to="1121203645#1" fromLane="0" toLane="0"/>

    <connection from="-1121203647#1" to="1121203644#0" fromLane="0" toLane="0"/>
    <connection from="-1121203647#1" to="-1121203647#0" fromLane="0" toLane="0"/>

    <connection from="-1121203659" to="-1121203644#1" fromLane="0" toLane="0"/>
    <connection from="-1121203659" to="1121203644#2" fromLane="0" toLane="0"/>

    <connection from="-1123562683" to="1123562685#2" fromLane="0" toLane="0"/>
    <connection from="-1123562683" to="-1123562685#1" fromLane="0" toLane="0"/>

    <connection from="-1123562684#0" to="-204829231#2" fromLane="0" toLane="0"/>

    <connection from="-1123562684#1" to="-1123562684#0" fromLane="0" toLane="0"/>
    <connection from="-1123562684#1" to="-514439190#6" fromLane="0" toLane="0"/>

    <connection from="-1123562685#0" to="-514439190#5" fromLane="0" toLane="0"/>
    <connection from="-1123562685#0" to="514439190#6" fromLane="0" toLane="0"/>

    <connection from="-1123562685#1" to="-1123562685#0" fromLane="0" toLane="0"/>

    <connection from="-1123562685#2" to="-1123562685#1" fromLane="0" toLane="0"/>
    <connection from="-1123562685#2" to="1123562683" fromLane="0" toLane="0"/>

    <connection from="-1123562685#3" to="-1123562685#2" fromLane="0" toLane="0"/>
    <connection from="-1123562685#3" to="-544531568#1" fromLane="0" toLane="0"/>

    <connection from="-1123562685#4" to="88509256#1" fromLane="0" toLane="0"/>
    <connection from="-1123562685#4" to="-1123562685#3" fromLane="0" toLane="0"/>
    <connection from="-1123562685#4" to="-88509256#0" fromLane="0" toLane="0"/>

    <connection from="-1123562685#5" to="-1123562685#4" fromLane="0" toLane="0"/>
    <connection from="-1123562685#5" to="392960126#1" fromLane="0" toLane="0"/>

    <connection from="-1123562685#6" to="204829236#1" fromLane="0" toLane="0"/>
    <connection from="-1123562685#6" to="-1123562685#5" fromLane="0" toLane="0"/>

    <connection from="-1134814873" to="-319058632#1" fromLane="0" toLane="0"/>
    <connection from="-1134814873" to="319058632#2" fromLane="0" toLane="0"/>

    <connection from="-1134814874" to="-1134814873" fromLane="0" toLane="0"/>

    <connection from="-1188939939#0" to="345696589#4" fromLane="0" toLane="0"/>
    <connection from="-1188939939#0" to="1284725069#0" fromLane="0" toLane="0"/>
    <connection from="-1188939939#0" to="-345696589#3" fromLane="0" toLane="0"/>

    <connection from="-1188939939#1" to="-1188939939#0" fromLane="0" toLane="0"/>

    <connection from="-1188939939#2" to="-1284725081" fromLane="0" toLane="0"/>
    <connection from="-1188939939#2" to="-1188939939#1" fromLane="0" toLane="0"/>

    <connection from="-1188940210#0" to="-345696577" fromLane="0" toLane="0"/>

    <connection from="-1188940210#1" to="1284725075" fromLane="0" toLane="0"/>
    <connection from="-1188940210#1" to="-1188940210#0" fromLane="0" toLane="0"/>

    <connection from="-1188940210#2" to="1284725076#0" fromLane="0" toLane="0"/>
    <connection from="-1188940210#2" to="-1188940210#1" fromLane="0" toLane="0"/>

    <connection from="-123590508#0" to="36950506#1" fromLane="0" toLane="0"/>
    <connection from="-123590508#0" to="-36950506#0" fromLane="0" toLane="0"/>

    <connection from="-123590508#1" to="-82493778#6" fromLane="0" toLane="0"/>
    <connection from="-123590508#1" to="-123590508#0" fromLane="0" toLane="0"/>

    <connection from="-123590508#2" to="-494698843" fromLane="0" toLane="0"/>
    <connection from="-123590508#2" to="-123590508#1" fromLane="0" toLane="0"/>

    <connection from="-123590508#3" to="-494698841" fromLane="0" toLane="0"/>
    <connection from="-123590508#3" to="-123590508#2" fromLane="0" toLane="0"/>

    <connection from="-123590508#4" to="-494698839" fromLane="0" toLane="0"/>
    <connection from="-123590508#4" to="-123590508#3" fromLane="0" toLane="0"/>

    <connection from="-123590508#5" to="-191954842#1" fromLane="0" toLane="0"/>
    <connection from="-123590508#5" to="-123590508#4" fromLane="0" toLane="0"/>

    <connection from="-1236849888" to="37082268#1" fromLane="0" toLane="0"/>

    <connection from="-1238956369" to="-319058622#1" fromLane="0" toLane="0"/>
    <connection from="-1238956369" to="-319058633" fromLane="0" toLane="0"/>

    <connection from="-1239117016#0"/>

    <connection from="-1239117016#1" to="-1239117016#0" fromLane="0" toLane="0"/>
    <connection from="-1239117016#1" to="-394446866" fromLane="0" toLane="0"/>

    <connection from="-1240584959" to="204829230#5" fromLane="0" toLane="0"/>
    <connection from="-1240584959" to="-204829230#4" fromLane="0" toLane="0"/>

    <connection from="-1284725068#0" to="-476883567#5" fromLane="0" toLane="0"/>
    <connection from="-1284725068#0" to="476883567#6" fromLane="0" toLane="0"/>

    <connection from="-1284725068#1" to="-1302590858#1" fromLane="0" toLane="0"/>
    <connection from="-1284725068#1" to="-1284725068#0" fromLane="0" toLane="0"/>

    <connection from="-1284725069#0" to="-345696589#3" fromLane="0" toLane="0"/>
    <connection from="-1284725069#0" to="1188939939#0" fromLane="0" toLane="0"/>
    <connection from="-1284725069#0" to="345696589#4" fromLane="0" toLane="0"/>

    <connection from="-1284725069#1" to="1302592462" fromLane="0" toLane="0"/>
    <connection from="-1284725069#1" to="-1284725069#0" fromLane="0" toLane="0"/>

    <connection from="-1284725070" to="-345696589#1" fromLane="0" toLane="0"/>
    <connection from="-1284725070" to="345696589#2" fromLane="0" toLane="0"/>

    <connection from="-1284725072#0"/>

    <connection from="-1284725072#1" to="345696602#0" fromLane="0" toLane="0"/>
    <connection from="-1284725072#1" to="-1284725072#0" fromLane="0" toLane="0"/>
    <connection from="-1284725072#1" to="345696583#0" fromLane="0" toLane="0"/>

    <connection from="-1284725073" to="-1284725074" fromLane="0" toLane="0"/>

    <connection from="-1284725074" to="-1284725072#1" fromLane="0" toLane="0"/>

    <connection from="-1284725075" to="-1188940210#0" fromLane="0" toLane="0"/>
    <connection from="-1284725075" to="1188940210#1" fromLane="0" toLane="0"/>

    <connection from="-1284725076#0" to="-1188940210#1" fromLane="0" toLane="0"/>
    <connection from="-1284725076#0" to="1188940210#2" fromLane="0" toLane="0"/>

    <connection from="-1284725076#1" to="345696597" fromLane="0" toLane="0"/>
    <connection from="-1284725076#1" to="-1284725076#0" fromLane="0" toLane="0"/>

    <connection from="-1284725077" to="345696568#1" fromLane="0" toLane="0"/>
    <connection from="-1284725077" to="-345696568#0" fromLane="0" toLane="0"/>

    <connection from="-1284725081" to="-361576006#2" fromLane="0" toLane="0"/>

    <connection from="-1302590851#0"/>

    <connection from="-1302590851#1" to="345696575#2" fromLane="0" toLane="0"/>
    <connection from="-1302590851#1" to="-1302590851#0" fromLane="0" toLane="0"/>
    <connection from="-1302590851#1" to="-345696575#1" fromLane="0" toLane="0"/>

    <connection from="-1302590852#0" to="-345696565#1" fromLane="0" toLane="0"/>
    <connection from="-1302590852#0" to="-1302590853" fromLane="0" toLane="0"/>
    <connection from="-1302590852#0" to="345696565#2" fromLane="0" toLane="0"/>

    <connection from="-1302590852#1" to="1302590862#0" fromLane="0" toLane="0"/>
    <connection from="-1302590852#1" to="-1302590852#0" fromLane="0" toLane="0"/>

    <connection from="-1302590852#2" to="1302590862#1" fromLane="0" toLane="0"/>
    <connection from="-1302590852#2" to="-1302590862#0" fromLane="0" toLane="0"/>
    <connection from="-1302590852#2" to="-1302590852#1" fromLane="0" toLane="0"/>

    <connection from="-1302590852#3" to="-1302590862#1" fromLane="0" toLane="0"/>
    <connection from="-1302590852#3" to="-1302590852#2" fromLane="0" toLane="0"/>

    <connection from="-1302590853" to="345696593" fromLane="0" toLane="0"/>
    <connection from="-1302590853" to="-345696580#1" fromLane="0" toLane="0"/>
    <connection from="-1302590853" to="-1302592462" fromLane="0" toLane="0"/>
    <connection from="-1302590853" to="345696580#2" fromLane="0" toLane="0"/>

    <connection from="-1302590858#0" to="432413375#3" fromLane="0" toLane="0"/>
    <connection from="-1302590858#0" to="754293141#0" fromLane="0" toLane="0"/>
    <connection from="-1302590858#0" to="-432413375#2" fromLane="0" toLane="0"/>

    <connection from="-1302590858#1" to="-1302590858#0" fromLane="0" toLane="0"/>
    <connection from="-1302590858#1" to="1302590859#0" fromLane="0" toLane="0"/>

    <connection from="-1302590859#0" to="1302590858#1" fromLane="0" toLane="0"/>
    <connection from="-1302590859#0" to="-1302590858#0" fromLane="0" toLane="0"/>

    <connection from="-1302590859#1" to="1302590861#0" fromLane="0" toLane="0"/>
    <connection from="-1302590859#1" to="1302590860" fromLane="0" toLane="0"/>
    <connection from="-1302590859#1" to="-1302590859#0" fromLane="0" toLane="0"/>

    <connection from="-1302590860" to="-1302590859#0" fromLane="0" toLane="0"/>
    <connection from="-1302590860" to="1302590859#1" fromLane="0" toLane="0"/>
    <connection from="-1302590860" to="1302590861#0" fromLane="0" toLane="0"/>

    <connection from="-1302590861#0" to="1302590860" fromLane="0" toLane="0"/>
    <connection from="-1302590861#0" to="-1302590859#0" fromLane="0" toLane="0"/>
    <connection from="-1302590861#0" to="1302590859#1" fromLane="0" toLane="0"/>

    <connection from="-1302590861#1" to="476883567#4" fromLane="0" toLane="0"/>
    <connection from="-1302590861#1" to="-1302590861#0" fromLane="0" toLane="0"/>
    <connection from="-1302590861#1" to="-476883567#3" fromLane="0" toLane="0"/>

    <connection from="-1302590861#2" to="-1302590861#1" fromLane="0" toLane="0"/>

    <connection from="-1302590862#0" to="-1302590852#0" fromLane="0" toLane="0"/>
    <connection from="-1302590862#0" to="1302590852#1" fromLane="0" toLane="0"/>

    <connection from="-1302590862#1" to="-1302590862#0" fromLane="0" toLane="0"/>
    <connection from="-1302590862#1" to="-1302590852#1" fromLane="0" toLane="0"/>
    <connection from="-1302590862#1" to="1302590852#2" fromLane="0" toLane="0"/>

    <connection from="-1302590882#0" to="476883567#0" fromLane="0" toLane="0"/>
    <connection from="-1302590882#0" to="599706518#0" fromLane="0" toLane="0"/>

    <connection from="-1302590882#1" to="-1302590882#0" fromLane="0" toLane="0"/>
    <connection from="-1302590882#1" to="361576004#0" fromLane="0" toLane="0"/>

    <connection from="-1302590883" to="-1302590882#1" fromLane="0" toLane="0"/>

    <connection from="-1302590884#0" to="-1024007863#0" fromLane="0" toLane="0"/>
    <connection from="-1302590884#0" to="1024007863#1" fromLane="0" toLane="0"/>

    <connection from="-1302590884#1" to="-1302590884#0" fromLane="0" toLane="0"/>
    <connection from="-1302590884#1" to="-1302590885" fromLane="0" toLane="0"/>

    <connection from="-1302590885" to="-1024007863#1" fromLane="0" toLane="0"/>
    <connection from="-1302590885" to="1024007863#2" fromLane="0" toLane="0"/>

    <connection from="-1302590886#0" to="-256600774#0" fromLane="0" toLane="0"/>
    <connection from="-1302590886#0" to="256600774#1" fromLane="0" toLane="0"/>

    <connection from="-1302590886#1" to="1302590889#0" fromLane="0" toLane="0"/>
    <connection from="-1302590886#1" to="-1302590886#0" fromLane="0" toLane="0"/>

    <connection from="-1302590887#0" to="-544531558#3" fromLane="0" toLane="0"/>

    <connection from="-1302590887#1" to="-1302590889#0" fromLane="0" toLane="0"/>
    <connection from="-1302590887#1" to="1302590889#1" fromLane="0" toLane="0"/>
    <connection from="-1302590887#1" to="-1302590887#0" fromLane="0" toLane="0"/>

    <connection from="-1302590888#0" to="544531562#0" fromLane="0" toLane="0"/>
    <connection from="-1302590888#0" to="-425168223" fromLane="0" toLane="0"/>
    <connection from="-1302590888#0" to="256600774#0" fromLane="0" toLane="0"/>

    <connection from="-1302590888#1" to="-1302590888#0" fromLane="0" toLane="0"/>
    <connection from="-1302590888#1" to="-1302590887#1" fromLane="0" toLane="0"/>

    <connection from="-1302590889#0" to="-1302590886#0" fromLane="0" toLane="0"/>
    <connection from="-1302590889#0" to="1302590886#1" fromLane="0" toLane="0"/>

    <connection from="-1302590889#1" to="-1302590887#0" fromLane="0" toLane="0"/>
    <connection from="-1302590889#1" to="1302590887#1" fromLane="0" toLane="0"/>
    <connection from="-1302590889#1" to="-1302590889#0" fromLane="0" toLane="0"/>

    <connection from="-1302590889#2" to="-476883567#11" fromLane="0" toLane="0"/>
    <connection from="-1302590889#2" to="-1302590889#1" fromLane="0" toLane="0"/>
    <connection from="-1302590889#2" to="476883567#12" fromLane="0" toLane="0"/>

    <connection from="-1302590889#3" to="-1302590890" fromLane="0" toLane="0"/>
    <connection from="-1302590889#3" to="-1302590889#2" fromLane="0" toLane="0"/>

    <connection from="-1302590890" to="-476883567#9" fromLane="0" toLane="0"/>
    <connection from="-1302590890" to="476883567#10" fromLane="0" toLane="0"/>

    <connection from="-1302590891" to="476883567#11" fromLane="0" toLane="0"/>
    <connection from="-1302590891" to="-476883567#10" fromLane="0" toLane="0"/>

    <connection from="-1302590892" to="202802648#1" fromLane="0" toLane="0"/>
    <connection from="-1302590892" to="-202802648#0" fromLane="0" toLane="0"/>

    <connection from="-1302592460" to="-544531566#0" fromLane="0" toLane="0"/>
    <connection from="-1302592460" to="544531566#1" fromLane="0" toLane="0"/>

    <connection from="-1302592461" to="-476883567#7" fromLane="0" toLane="0"/>
    <connection from="-1302592461" to="476883567#8" fromLane="0" toLane="0"/>

    <connection from="-1302592462" to="-1284725069#0" fromLane="0" toLane="0"/>
    <connection from="-1302592462" to="1284725069#1" fromLane="0" toLane="0"/>

    <connection from="-1302592481" to="-376643261#5" fromLane="0" toLane="0"/>
    <connection from="-1302592481" to="-161032397" fromLane="0" toLane="0"/>
    <connection from="-1302592481" to="161032404#0" fromLane="0" toLane="0"/>

    <connection from="-1339510606#0"/>

    <connection from="-1339510606#1" to="-1339510606#0" fromLane="0" toLane="0"/>
    <connection from="-1339510606#1" to="-243957919#1" fromLane="0" toLane="0"/>

    <connection from="-139832418#0" to="-242710260" fromLane="0" toLane="0"/>
    <connection from="-139832418#0" to="-875812542#3" fromLane="0" toLane="0"/>

    <connection from="-139832418#1" to="-139832418#0" fromLane="0" toLane="0"/>
    <connection from="-139832418#1" to="734626866" fromLane="0" toLane="0"/>

    <connection from="-139832418#2" to="734626865" fromLane="0" toLane="0"/>
    <connection from="-139832418#2" to="-139832418#1" fromLane="0" toLane="0"/>

    <connection from="-139832419#0"/>

    <connection from="-139832419#1" to="-139832419#0" fromLane="0" toLane="0"/>
    <connection from="-139832419#1" to="-394459775" fromLane="0" toLane="0"/>

    <connection from="-139832420" to="-494235935#1" fromLane="0" toLane="0"/>

    <connection from="-139832421#0"/>

    <connection from="-139832421#1" to="-394459771#2" fromLane="0" toLane="0"/>
    <connection from="-139832421#1" to="-139832421#0" fromLane="0" toLane="0"/>

    <connection from="-139832421#2" to="-394459769#1" fromLane="0" toLane="0"/>
    <connection from="-139832421#2" to="-139832421#1" fromLane="0" toLane="0"/>

    <connection from="-139832422#0" to="985872297#1" fromLane="0" toLane="0"/>
    <connection from="-139832422#0" to="-985872297#0" fromLane="0" toLane="0"/>

    <connection from="-139832422#1" to="-139832422#0" fromLane="0" toLane="0"/>
    <connection from="-139832422#1" to="243957915#0" fromLane="0" toLane="0"/>

    <connection from="-139832422#2" to="-139832422#1" fromLane="0" toLane="0"/>
    <connection from="-139832422#2" to="-671928271" fromLane="0" toLane="0"/>

    <connection from="-139832425" to="-139832420" fromLane="0" toLane="0"/>
    <connection from="-139832425" to="494235940" fromLane="0" toLane="0"/>

    <connection from="-140423859" to="1025244223" fromLane="0" toLane="0"/>