<?xml version="1.0" encoding="UTF-8"?>

<!-- generated on 2025-02-05 23:09:03 by Eclipse SUMO netconvert Version 1.19.0
<configuration xmlns:xsi="http://www.w3.org/2001/XMLSchema-instance" xsi:noNamespaceSchemaLocation="http://sumo.dlr.de/xsd/netconvertConfiguration.xsd">

    <input>
        <sumo-net-file value="sourdun.net.xml"/>
    </input>

    <output>
        <plain-output-prefix value="sourdun"/>
    </output>

    <processing>
        <geometry.min-radius.fix.railways value="false"/>
        <geometry.max-grade.fix value="false"/>
        <offset.disable-normalization value="true"/>
        <lefthand value="0"/>
    </processing>

    <junctions>
        <no-turnarounds value="true"/>
        <junctions.corner-detail value="5"/>
        <junctions.limit-turn-speed value="5.50"/>
        <rectangular-lane-cut value="0"/>
    </junctions>

    <pedestrian>
        <walkingareas value="0"/>
    </pedestrian>

</configuration>
-->

<edges version="1.16" xmlns:xsi="http://www.w3.org/2001/XMLSchema-instance" xsi:noNamespaceSchemaLocation="http://sumo.dlr.de/xsd/edges_file.xsd">
    <location netOffset="0.00,0.00" convBoundary="521942.14,5370238.74,534590.79,5384029.90" origBoundary="3.297119,48.484753,3.468734,48.608635" projParameter="+proj=utm +zone=31 +ellps=WGS84 +datum=WGS84 +units=m +no_defs"/>

    <edge id="-1002402280" from="9251296427" to="9251296431" priority="1" type="highway.service" numLanes="1" speed="5.56" shape="523581.19,5377714.63 523592.66,5377709.06 523601.92,5377695.69 523617.44,5377677.49 523634.31,5377665.33" allow="pedestrian delivery bicycle"/>
    <edge id="-1024007862" from="2127661495" to="9442838315" priority="1" type="highway.track" numLanes="1" speed="5.56" shape="527946.01,5372887.61 527943.16,5372897.23 527890.24,5372982.19 527868.97,5373016.86 527865.14,5373029.08 527733.87,5373372.20" allow="pedestrian motorcycle moped bicycle"/>
    <edge id="-1024007863#0" from="9442849529" to="9442849532" priority="1" type="highway.track" numLanes="1" speed="5.56" shape="527349.28,5372947.26 527341.60,5372979.61 527313.63,5373026.49 527306.73,5373065.53" allow="pedestrian motorcycle moped bicycle"/>
    <edge id="-1024007863#1" from="12063881694" to="9442849529" priority="1" type="highway.track" numLanes="1" speed="5.56" shape="527273.42,5372706.64 527306.93,5372775.20 527309.85,5372824.99 527340.55,5372867.01 527352.24,5372907.77 527349.28,5372947.26" allow="pedestrian motorcycle moped bicycle"/>
    <edge id="-1024007863#2" from="9442849547" to="12063881694" priority="1" type="highway.track" numLanes="1" speed="5.56" shape="527226.54,5372270.30 527236.29,5372303.14 527235.37,5372330.79 527249.26,5372407.11 527263.86,5372501.60 527255.80,5372531.20 527239.01,5372562.72 527234.86,5372599.05 527240.16,5372650.44 527264.55,5372688.48 527273.42,5372706.64" allow="pedestrian motorcycle moped bicycle"/>
    <edge id="-1024007864#0" from="9442849547" to="9442849562" priority="1" type="highway.track" numLanes="1" speed="5.56" shape="527226.54,5372270.30 527205.13,5372232.66 527191.06,5372190.32 527188.06,5372156.92 527188.45,5372117.41 527195.57,5372077.74 527210.61,5372040.67 527265.18,5371984.23 527300.93,5371965.44 527375.93,5371944.46 527421.58,5371927.30 527435.73,5371912.55 527470.71,5371850.29" allow="pedestrian motorcycle moped bicycle"/>
    <edge id="-1024007864#1" from="12063881693" to="9442849547" priority="1" type="highway.track" numLanes="1" speed="5.56" shape="527790.24,5372531.91 527783.84,5372521.72 527766.61,5372481.34 527744.73,5372457.92 527718.07,5372440.21 527591.66,5372401.07 527502.65,5372371.20 527478.87,5372371.68 527440.37,5372383.74 527371.86,5372416.00 527350.43,5372422.81 527339.74,5372420.98 527326.11,5372412.62 527318.46,5372397.37 527266.37,5372310.60 527226.54,5372270.30" allow="pedestrian motorcycle moped bicycle"/>
    <edge id="-1024007864#2" from="8633203048" to="12063881693" priority="1" type="highway.track" numLanes="1" speed="5.56" allow="pedestrian motorcycle moped bicycle"/>
    <edge id="-1024007865#0" from="9442849562" to="1122620884" priority="1" type="highway.track" numLanes="1" speed="5.56" allow="pedestrian motorcycle moped bicycle"/>
    <edge id="-1024007865#1" from="5303308091" to="9442849562" priority="1" type="highway.track" numLanes="1" speed="5.56" shape="527900.38,5372072.48 527787.49,5371982.63 527740.43,5371962.25 527626.10,5371922.17 527470.71,5371850.29" allow="pedestrian motorcycle moped bicycle"/>
    <edge id="-1024007868#0" from="9442849623" to="9442849631" priority="1" type="highway.track" numLanes="1" speed="5.56" shape="530360.46,5374583.50 530347.49,5374601.59 530311.07,5374634.57 530287.89,5374637.21 530271.27,5374634.35 530210.22,5374605.20 530064.70,5374560.38 529969.18,5374551.10 529940.70,5374542.16" allow="pedestrian motorcycle moped bicycle"/>
    <edge id="-1024007868#1" from="9442849616" to="9442849623" priority="1" type="highway.track" numLanes="1" speed="5.56" shape="530396.22,5374452.77 530398.36,5374459.09 530396.72,5374470.34 530409.23,5374500.43 530410.52,5374518.01 530399.53,5374537.10 530369.50,5374560.84 530360.46,5374583.50" allow="pedestrian motorcycle moped bicycle"/>
    <edge id="-1024007868#2" from="9442849623" to="9442849616" priority="1" type="highway.track" numLanes="1" speed="5.56" shape="530360.46,5374583.50 530346.59,5374547.98 530347.11,5374524.28 530362.91,5374497.02 530370.57,5374470.59 530379.97,5374454.46 530389.70,5374450.35 530396.22,5374452.77" allow="pedestrian motorcycle moped bicycle"/>
    <edge id="-1024007869" from="9442849632" to="9442849647" priority="1" type="highway.track" numLanes="1" speed="5.56" shape="529425.15,5374554.31 529439.45,5374482.65 529468.08,5374423.36 529481.99,5374415.53 529506.72,5374419.80 529532.62,5374427.64 529559.27,5374444.77 529603.07,5374477.19 529662.57,5374498.43 529744.21,5374529.26 529756.85,5374535.86 529771.29,5374537.90 529790.52,5374536.42 529815.93,5374524.12 529854.38,5374519.38 529939.16,5374517.27" allow="pedestrian motorcycle moped bicycle"/>
    <edge id="-1024007870#0" from="9442849647" to="7046916643" priority="1" type="highway.track" numLanes="1" speed="5.56" shape="529939.16,5374517.27 529960.73,5374333.13 529970.86,5374328.05" allow="pedestrian motorcycle moped bicycle"/>
    <edge id="-1024007870#1" from="5704760571" to="9442849647" priority="1" type="highway.track" numLanes="1" speed="5.56" allow="pedestrian motorcycle moped bicycle"/>
    <edge id="-1024007874" from="9442849725" to="9442849726" priority="1" type="highway.service" numLanes="1" speed="5.56" allow="pedestrian delivery bicycle"/>
    <edge id="-1024333780" from="8310379383" to="9445613379" priority="1" type="highway.track" numLanes="1" speed="5.56" shape="529140.20,5370985.95 529151.17,5370990.16 529157.40,5370993.65 529163.41,5370999.51 529169.71,5371007.64 529177.36,5371022.89 529248.06,5371165.33 529322.88,5371183.89 529345.80,5371195.87 529382.08,5371230.83 529617.22,5371437.55 529581.26,5371492.28 529509.73,5371566.98 529528.80,5371597.52 529585.13,5371625.07 529411.79,5371990.57" allow="pedestrian motorcycle moped bicycle"/>
    <edge id="-1025244221#0" from="9453228832" to="9453193593" priority="1" type="highway.track" numLanes="1" speed="5.56" allow="pedestrian motorcycle moped bicycle"/>
    <edge id="-1025244221#1" from="9453228826" to="9453228832" priority="1" type="highway.track" numLanes="1" speed="5.56" shape="524161.85,5375138.83 524162.60,5375149.69 524157.59,5375163.30 524144.42,5375185.55 524134.78,5375218.48 524113.51,5375283.55 524072.25,5375372.53" allow="pedestrian motorcycle moped bicycle"/>
    <edge id="-1025244221#2" from="9453228833" to="9453228826" priority="1" type="highway.track" numLanes="1" speed="5.56" shape="524563.08,5374178.12 524509.55,5374213.54 524478.25,5374238.19 524466.84,5374265.79 524444.30,5374301.83 524404.49,5374347.86 524340.88,5374402.88 524276.02,5374471.32 524234.17,5374529.19 524216.13,5374579.67 524205.60,5374632.94 524202.99,5374780.23 524201.18,5375018.16 524203.51,5375029.72 524208.42,5375038.13 524226.54,5375062.30 524228.29,5375069.62 524220.32,5375081.42 524198.66,5375098.71 524161.85,5375138.83" allow="pedestrian motorcycle moped bicycle"/>
    <edge id="-1025244222" from="9453228847" to="9453228857" priority="1" type="highway.track" numLanes="1" speed="5.56" shape="523119.22,5375380.43 523115.01,5375393.39 523114.67,5375405.54 523116.26,5375475.34 523118.88,5375489.76 523126.02,5375510.03 523134.14,5375532.76 523134.86,5375553.29 523134.33,5375584.88 523130.57,5375607.96 523126.44,5375624.62" allow="pedestrian motorcycle moped bicycle"/>
    <edge id="-1025244223" from="429522873" to="1730372364" priority="11" type="highway.secondary" numLanes="1" speed="27.78" shape="523200.93,5375142.05 523187.57,5375155.83 523170.32,5375168.90" disallow="tram rail_urban rail rail_electric rail_fast ship">
        <param key="ref" value="D 1"/>
    </edge>
    <edge id="-1025244224" from="9453228864" to="9453228866" priority="4" type="highway.unclassified" numLanes="1" speed="13.89" shape="523137.47,5375263.05 523077.01,5375270.14 523054.18,5375267.53" disallow="tram rail_urban rail rail_electric rail_fast ship"/>
    <edge id="-1025244225" from="9453228878" to="9453228867" priority="1" type="highway.track" numLanes="1" speed="5.56" shape="523395.14,5374927.66 523378.86,5374893.75 523368.02,5374883.54 523364.38,5374878.30 523362.14,5374868.51 523365.23,5374840.09 523361.78,5374834.06 523357.14,5374831.37 523346.95,5374831.43 523248.69,5374862.11 523241.95,5374862.29 523233.88,5374852.18 523214.80,5374819.33 523189.65,5374794.24 523174.24,5374784.94" allow="pedestrian motorcycle moped bicycle"/>
    <edge id="-1025244226" from="5325918598" to="3262395686" priority="3" type="highway.residential" numLanes="1" speed="13.89" shape="523016.83,5374928.71 523016.04,5374946.07 523019.25,5374961.09 523021.31,5374990.02 523018.77,5375003.46" disallow="tram rail_urban rail rail_electric rail_fast ship"/>
    <edge id="-1025244227" from="3262395692" to="429522848" priority="1" type="highway.track" numLanes="1" speed="5.56" shape="522926.75,5375013.06 522930.92,5374890.84 522937.11,5374880.01" allow="pedestrian motorcycle moped bicycle"/>
    <edge id="-1025244228" from="9453228906" to="9453228894" priority="1" type="highway.track" numLanes="1" speed="5.56" shape="522694.43,5374602.37 522708.18,5374630.67 522730.07,5374653.37 522783.76,5374698.11 522801.00,5374718.32 522836.61,5374767.58 522861.80,5374793.55 522885.86,5374816.01 522901.46,5374827.32 522930.09,5374837.15" allow="pedestrian motorcycle moped bicycle"/>
    <edge id="-1025244231" from="9453228917" to="9453228919" priority="1" type="highway.track" numLanes="1" speed="5.56" shape="522906.67,5375290.11 522973.19,5375282.64 522990.04,5375281.93" allow="pedestrian motorcycle moped bicycle"/>
    <edge id="-1025244232" from="1730374086" to="429522878" priority="3" type="highway.residential" numLanes="1" speed="13.89" shape="523001.72,5375474.57 522996.63,5375368.47 522992.03,5375347.46" disallow="tram rail_urban rail rail_electric rail_fast ship"/>
    <edge id="-104488868#0" from="1027652086" to="1205584203" priority="10" type="highway.tertiary" numLanes="1" speed="22.22" shape="525240.05,5373957.78 525188.85,5373691.88 525171.61,5373586.71" disallow="tram rail_urban rail rail_electric rail_fast ship">
        <param key="ref" value="D 78"/>
    </edge>
    <edge id="-104488868#1" from="5263685155" to="1027652086" priority="10" type="highway.tertiary" numLanes="1" speed="22.22" shape="525269.04,5374032.69 525265.90,5374025.05 525240.05,5373957.78" disallow="tram rail_urban rail rail_electric rail_fast ship">
        <param key="ref" value="D 78"/>
    </edge>
    <edge id="-104488868#2" from="2466502190" to="5263685155" priority="10" type="highway.tertiary" numLanes="1" speed="22.22" shape="525458.23,5374587.27 525343.48,5374213.39 525284.58,5374070.42 525269.04,5374032.69" disallow="tram rail_urban rail rail_electric rail_fast ship">
        <param key="ref" value="D 78"/>
    </edge>
    <edge id="-104488868#3" from="5263622595" to="2466502190" priority="10" type="highway.tertiary" numLanes="1" speed="22.22" shape="525460.18,5374593.78 525459.04,5374589.90 525458.23,5374587.27" disallow="tram rail_urban rail rail_electric rail_fast ship">
        <param key="ref" value="D 78"/>
    </edge>
    <edge id="-104488868#4" from="8633203099" to="5263622595" priority="10" type="highway.tertiary" numLanes="1" speed="22.22" shape="525530.18,5374962.31 525512.62,5374830.26 525497.27,5374720.40 525460.18,5374593.78" disallow="tram rail_urban rail rail_electric rail_fast ship">
        <param key="ref" value="D 78"/>
    </edge>
    <edge id="-104488868#5" from="2466502238" to="8633203099" priority="10" type="highway.tertiary" numLanes="1" speed="22.22" shape="525567.09,5375265.78 525531.00,5374968.56 525530.18,5374962.31" disallow="tram rail_urban rail rail_electric rail_fast ship">
        <param key="ref" value="D 78"/>
    </edge>
    <edge id="-104488868#6" from="1027652108" to="2466502238" priority="10" type="highway.tertiary" numLanes="1" speed="22.22" shape="525606.11,5375525.69 525567.65,5375270.43 525567.09,5375265.78" disallow="tram rail_urban rail rail_electric rail_fast ship">
        <param key="ref" value="D 78"/>
    </edge>
    <edge id="-1057732934" from="9719006167" to="9719006168" priority="1" type="highway.service" numLanes="1" speed="5.56" allow="pedestrian delivery bicycle"/>
    <edge id="-1057732935#0" from="3801270248" to="256488942" priority="3" type="highway.residential" numLanes="1" speed="13.89" disallow="tram rail_urban rail rail_electric rail_fast ship"/>
    <edge id="-1057732935#1" from="2466594133" to="3801270248" priority="3" type="highway.residential" numLanes="1" speed="13.89" shape="525974.95,5376334.87 525927.09,5376288.80 525892.42,5376253.35" disallow="tram rail_urban rail rail_electric rail_fast ship"/>
    <edge id="-1057732935#2" from="1028123280" to="2466594133" priority="3" type="highway.residential" numLanes="1" speed="13.89" disallow="tram rail_urban rail rail_electric rail_fast ship"/>
    <edge id="-1057732937#0" from="9719006174" to="9719006180" priority="1" type="highway.service" numLanes="1" speed="5.56" shape="525673.43,5376282.03 525713.04,5376266.48 525725.20,5376268.90 525775.42,5376260.13" allow="pedestrian delivery bicycle"/>
    <edge id="-1057732937#1" from="9719006177" to="9719006174" priority="1" type="highway.service" numLanes="1" speed="5.56" allow="pedestrian delivery bicycle"/>
    <edge id="-1057732937#2" from="9719006169" to="9719006177" priority="1" type="highway.service" numLanes="1" speed="5.56" allow="pedestrian delivery bicycle"/>
    <edge id="-1057732939#0" from="9719006181" to="2466593994" priority="3" type="highway.residential" numLanes="1" speed="13.89" disallow="tram rail_urban rail rail_electric rail_fast ship"/>
    <edge id="-1057732939#1" from="9919341126" to="9719006181" priority="3" type="highway.residential" numLanes="1" speed="13.89" shape="526397.64,5375897.71 526391.87,5375902.62 526382.57,5375902.77 526379.61,5375898.42 526378.32,5375880.25" disallow="tram rail_urban rail rail_electric rail_fast ship"/>
    <edge id="-1057732939#2" from="9719006181" to="9919341126" priority="3" type="highway.residential" numLanes="1" speed="13.89" shape="526378.32,5375880.25 526393.16,5375881.50 526396.71,5375884.08 526397.47,5375890.60 526397.64,5375897.71" disallow="tram rail_urban rail rail_electric rail_fast ship"/>
    <edge id="-1057732944" from="9719006198" to="9719006199" priority="1" type="highway.service" numLanes="1" speed="5.56" allow="pedestrian delivery bicycle"/>
    <edge id="-1057732945" from="9719006200" to="9719006201" priority="1" type="highway.path" numLanes="1" speed="5.56" width="2.00" allow="pedestrian bicycle"/>
    <edge id="-1057732946#0" from="9719006200" to="9719006206" priority="1" type="highway.track" numLanes="1" speed="5.56" shape="528741.71,5372486.33 528740.18,5372484.63 528683.89,5372390.30" allow="pedestrian motorcycle moped bicycle"/>
    <edge id="-1057732946#1" from="9719006202" to="9719006200" priority="1" type="highway.track" numLanes="1" speed="5.56" shape="528937.92,5372583.86 528854.20,5372541.31 528746.39,5372491.48 528741.71,5372486.33" allow="pedestrian motorcycle moped bicycle"/>
    <edge id="-1057732947#0" from="9719006206" to="9719006208" priority="1" type="highway.track" numLanes="1" speed="5.56" shape="528683.89,5372390.30 528658.02,5372452.60 528654.68,5372457.26" allow="pedestrian motorcycle moped bicycle"/>
    <edge id="-1057732947#1" from="5303308071" to="9719006206" priority="1" type="highway.track" numLanes="1" speed="5.56" allow="pedestrian motorcycle moped bicycle"/>
    <edge id="-1057732948" from="9719006209" to="9719006210" priority="1" type="highway.service" numLanes="1" speed="5.56" allow="pedestrian delivery bicycle"/>
    <edge id="-1057732949" from="9719006211" to="9719006212" priority="1" type="highway.service" numLanes="1" speed="5.56" allow="pedestrian delivery bicycle"/>
    <edge id="-1057732950" from="1028003676" to="9719006215" priority="1" type="highway.track" numLanes="1" speed="5.56" shape="528584.87,5372221.09 528581.74,5372218.02 528530.08,5372187.83 528416.03,5372121.33" allow="pedestrian motorcycle moped bicycle"/>
    <edge id="-1057732951" from="9719006216" to="5303308070" priority="1" type="highway.track" numLanes="1" speed="5.56" allow="pedestrian motorcycle moped bicycle"/>
    <edge id="-1057732952" from="9719038417" to="9719038424" priority="1" type="highway.service" numLanes="1" speed="5.56" shape="528627.59,5372456.10 528631.19,5372467.38 528643.18,5372467.74" allow="pedestrian delivery bicycle"/>
    <edge id="-1057732954#0" from="9719038424" to="9719038425" priority="1" type="highway.service" numLanes="1" speed="5.56" allow="pedestrian delivery bicycle"/>
    <edge id="-1057732954#1" from="9719038423" to="9719038424" priority="1" type="highway.service" numLanes="1" speed="5.56" allow="pedestrian delivery bicycle"/>
    <edge id="-1057732955" from="1730994666" to="9719038426" priority="1" type="highway.service" numLanes="1" speed="5.56" allow="pedestrian delivery bicycle"/>
    <edge id="-1057732959#0" from="9719038437" to="9719038438" priority="1" type="highway.service" numLanes="1" speed="5.56" allow="pedestrian delivery bicycle"/>
    <edge id="-1057732959#1" from="7046958110" to="9719038437" priority="1" type="highway.service" numLanes="1" speed="5.56" allow="pedestrian delivery bicycle"/>
    <edge id="-1057732960" from="9719038440" to="1730993440" priority="1" type="highway.service" numLanes="1" speed="5.56" allow="pedestrian delivery bicycle"/>
    <edge id="-1057732961" from="9719038441" to="9719038446" priority="1" type="highway.service" numLanes="1" speed="5.56" shape="528640.23,5372415.29 528633.33,5372417.11 528628.98,5372416.50 528614.43,5372414.06 528601.84,5372414.19 528584.84,5372408.78" allow="pedestrian delivery bicycle"/>
    <edge id="-1057740880" from="9719108003" to="9719108008" priority="4" type="highway.unclassified" numLanes="1" speed="13.89" shape="522889.27,5377152.25 522871.30,5377146.53 522719.98,5377098.38 522699.02,5377091.24" disallow="tram rail_urban rail rail_electric rail_fast ship"/>
    <edge id="-106219261" from="1222774765" to="429522909" priority="1" type="highway.track" numLanes="1" speed="5.56" shape="522628.67,5376301.02 522509.24,5375894.72 522511.83,5375886.56 522516.22,5375882.69 522525.34,5375877.75 522537.85,5375870.78 522549.32,5375863.46 522560.07,5375856.53 522565.81,5375851.43 522582.62,5375832.03 522608.86,5375801.11 522632.80,5375770.06 522638.83,5375764.27 522648.97,5375759.56 522658.53,5375756.59 522668.07,5375756.48 522679.80,5375759.45 522694.35,5375761.13 522726.33,5375759.35 522769.33,5375757.77 522794.43,5375758.16 522840.36,5375759.08 522904.50,5375759.78 522939.57,5375760.22 522956.45,5375760.43 522968.54,5375759.38 522977.35,5375757.96 522982.55,5375755.81 522992.64,5375751.92 523002.92,5375750.45 523011.21,5375750.96 523027.06,5375753.89" allow="pedestrian motorcycle moped bicycle"/>
    <edge id="-1082337430" from="9919280393" to="9919280399" priority="1" type="highway.service" numLanes="1" speed="5.56" shape="525827.77,5376570.81 525821.75,5376587.96 525820.44,5376593.17 525821.31,5376599.40 525824.95,5376603.76 525834.63,5376607.66 525841.47,5376606.91" allow="pedestrian delivery bicycle"/>
    <edge id="-1082337431#0" from="9919280399" to="6292165431" priority="1" type="highway.service" numLanes="1" speed="5.56" allow="pedestrian delivery bicycle"/>
    <edge id="-1082337431#1" from="1027652122" to="9919280399" priority="1" type="highway.service" numLanes="1" speed="5.56" shape="525851.54,5376585.75 525846.35,5376593.49 525841.47,5376606.91" allow="pedestrian delivery bicycle"/>
    <edge id="-1082337435" from="2466594067" to="9919280416" priority="3" type="highway.residential" numLanes="1" speed="13.89" shape="526367.26,5376055.83 526365.93,5376043.35 526344.35,5376015.04 526350.29,5375986.53" disallow="tram rail_urban rail rail_electric rail_fast ship"/>
    <edge id="-1082337436#0" from="9919341121" to="9919341122" priority="1" type="highway.service" numLanes="1" speed="5.56" allow="pedestrian delivery bicycle"/>
    <edge id="-1082337436#1" from="9919341117" to="9919341121" priority="1" type="highway.service" numLanes="1" speed="5.56" shape="526297.09,5375931.59 526278.25,5375938.81 526279.62,5375942.57 526261.08,5375966.76 526261.26,5375972.92" allow="pedestrian delivery bicycle"/>
    <edge id="-1102935206" from="1863767126" to="3801255175" priority="12" type="highway.primary" numLanes="1" speed="19.44" disallow="tram rail_urban rail rail_electric rail_fast ship">
        <param key="ref" value="D 619"/>
    </edge>
    <edge id="-1109772709" from="431325283" to="2023683308" priority="12" type="highway.primary" numLanes="1" speed="27.78" shape="523523.93,5377654.73 523454.03,5377655.94 523408.23,5377656.97" disallow="tram rail_urban rail rail_electric rail_fast ship">
        <param key="ref" value="D 619"/>
    </edge>
    <edge id="-1109772710" from="10152611760" to="10152611759" priority="12" type="highway.primary" numLanes="1" speed="27.78" shape="523054.94,5377608.39 523002.34,5377595.10 522906.74,5377569.39" disallow="tram rail_urban rail rail_electric rail_fast ship">
        <param key="ref" value="D 619"/>
    </edge>
    <edge id="-1121192390" from="4703258758" to="10255355052" priority="1" type="highway.service" numLanes="1" speed="5.56" allow="bicycle"/>
    <edge id="-1121192391" from="4703258773" to="4703258771" priority="1" type="highway.service" numLanes="1" speed="5.56" shape="527836.06,5375243.20 527831.11,5375253.02 527829.57,5375269.37" allow="bicycle"/>
    <edge id="-1121192392" from="10255355052" to="4703258773" priority="1" type="highway.service" numLanes="1" speed="5.56" shape="527791.66,5375268.27 527816.69,5375256.50 527836.06,5375243.20" allow="pedestrian delivery bicycle"/>
    <edge id="-1121203644#0" from="10255469417" to="10255469422" priority="1" type="highway.service" numLanes="1" speed="5.56" shape="527029.66,5375500.69 527030.77,5375471.95 527031.83,5375454.52 527032.95,5375451.20 527036.16,5375448.02" allow="pedestrian delivery bicycle"/>
    <edge id="-1121203644#1" from="10255469557" to="10255469417" priority="1" type="highway.service" numLanes="1" speed="5.56" allow="pedestrian delivery bicycle"/>
    <edge id="-1121203644#2" from="10255469398" to="10255469557" priority="1" type="highway.service" numLanes="1" speed="5.56" shape="527116.22,5375483.41 527134.90,5375497.74 527137.76,5375506.20 527138.90,5375561.09 527136.66,5375565.90 527130.84,5375568.93 527119.17,5375570.12 527074.73,5375571.29 527052.64,5375573.68 527045.28,5375573.79 527039.04,5375571.81 527034.34,5375568.61 527031.44,5375564.30 527029.80,5375559.45 527029.44,5375555.75 527029.63,5375506.82" allow="pedestrian delivery bicycle"/>
    <edge id="-1121203644#3" from="10255469400" to="10255469398" priority="1" type="highway.service" numLanes="1" speed="5.56" shape="527106.95,5375463.46 527107.79,5375470.35 527110.02,5375475.04 527116.22,5375483.41" allow="pedestrian delivery bicycle"/>
    <edge id="-1121203644#4" from="10255469404" to="10255469400" priority="1" type="highway.service" numLanes="1" speed="5.56" shape="527092.00,5375394.11 527094.10,5375397.32 527105.45,5375405.29 527108.31,5375412.20 527106.95,5375463.46" allow="pedestrian delivery bicycle"/>
    <edge id="-1121203644#5" from="10255469408" to="10255469404" priority="1" type="highway.service" numLanes="1" speed="5.56" shape="527081.14,5375340.59 527088.80,5375348.98 527090.57,5375354.50 527091.19,5375360.01 527092.00,5375394.11" allow="pedestrian delivery bicycle"/>
    <edge id="-1121203645#0" from="10255469410" to="10255469409" priority="1" type="highway.service" numLanes="1" speed="5.56" allow="pedestrian delivery bicycle"/>
    <edge id="-1121203645#1" from="10255469404" to="10255469410" priority="1" type="highway.service" numLanes="1" speed="5.56" shape="527092.00,5375394.11 527051.84,5375394.12 527046.37,5375393.99 527043.44,5375392.87" allow="pedestrian delivery bicycle"/>
    <edge id="-1121203646" from="10255469417" to="10255469398" priority="1" type="highway.service" numLanes="1" speed="5.56" shape="527029.66,5375500.69 527059.75,5375501.22 527098.63,5375496.46 527105.69,5375494.80 527109.13,5375492.54 527116.22,5375483.41" allow="pedestrian delivery bicycle"/>
    <edge id="-1121203647#0" from="10255469422" to="10255469410" priority="1" type="highway.service" numLanes="1" speed="5.56" shape="527036.16,5375448.02 527033.68,5375443.31 527033.57,5375437.91 527038.00,5375412.87 527040.71,5375396.54 527043.44,5375392.87" allow="pedestrian delivery bicycle"/>
    <edge id="-1121203647#1" from="10255469400" to="10255469422" priority="1" type="highway.service" numLanes="1" speed="5.56" shape="527106.95,5375463.46 527089.40,5375464.62 527074.00,5375463.15 527062.21,5375460.33 527047.24,5375455.56 527041.14,5375452.76 527036.16,5375448.02" allow="pedestrian delivery bicycle"/>
    <edge id="-1121203659" from="10255469562" to="10255469557" priority="1" type="highway.service" numLanes="1" speed="5.56" shape="526960.67,5375492.76 526970.05,5375497.66 526979.18,5375500.34 527005.44,5375506.04 527020.67,5375506.77 527029.63,5375506.82" allow="pedestrian delivery bicycle"/>
    <edge id="-1123562683" from="10275185650" to="10275185651" priority="1" type="highway.path" numLanes="1" speed="5.56" width="2.00" allow="pedestrian bicycle"/>
    <edge id="-1123562684#0" from="2148032671" to="2148032688" priority="4" type="highway.unclassified" numLanes="1" speed="13.89" disallow="tram rail_urban rail rail_electric rail_fast ship"/>
    <edge id="-1123562684#1" from="2148032653" to="2148032671" priority="4" type="highway.unclassified" numLanes="1" speed="13.89" disallow="tram rail_urban rail rail_electric rail_fast ship"/>
    <edge id="-1123562685#0" from="8310374905" to="5263685212" priority="1" type="highway.path" numLanes="1" speed="5.56" width="2.00" allow="pedestrian bicycle"/>
    <edge id="-1123562685#1" from="10275185651" to="8310374905" priority="1" type="highway.path" numLanes="1" speed="5.56" shape="527485.01,5375631.93 527481.37,5375617.47 527480.69,5375614.76" width="2.00" allow="pedestrian bicycle"/>
    <edge id="-1123562685#2" from="3801255181" to="10275185651" priority="1" type="highway.path" numLanes="1" speed="5.56" shape="527466.40,5375667.90 527477.51,5375663.98 527483.27,5375660.06 527487.47,5375651.20 527487.32,5375641.13 527485.01,5375631.93" width="2.00" allow="pedestrian bicycle"/>
    <edge id="-1123562685#3" from="8638863414" to="3801255181" priority="1" type="highway.path" numLanes="1" speed="5.56" shape="526776.19,5375849.50 527357.03,5375706.42 527461.92,5375668.98 527466.40,5375667.90" width="2.00" allow="pedestrian bicycle"/>
    <edge id="-1123562685#4" from="3801255185" to="8638863414" priority="1" type="highway.path" numLanes="1" speed="5.56" shape="526665.12,5375874.24 526676.44,5375873.36 526765.88,5375852.01 526776.19,5375849.50" width="2.00" allow="pedestrian bicycle"/>
    <edge id="-1123562685#5" from="3801255186" to="3801255185" priority="1" type="highway.path" numLanes="1" speed="5.56" width="2.00" allow="pedestrian bicycle"/>
    <edge id="-1123562685#6" from="3801255187" to="3801255186" priority="1" type="highway.path" numLanes="1" speed="5.56" width="2.00" allow="pedestrian bicycle"/>
    <edge id="-1134814873" from="10579116122" to="3254769508" priority="4" type="highway.unclassified" numLanes="1" speed="13.89" shape="523885.65,5379483.51 523888.52,5379479.93 523926.80,5379441.29" disallow="tram rail_urban rail rail_electric rail_fast ship"/>
    <edge id="-1134814874" from="10579116121" to="10579116122" priority="4" type="highway.unclassified" numLanes="1" speed="13.89" disallow="tram rail_urban rail rail_electric rail_fast ship"/>
    <edge id="-1188939939#0" from="11039874419" to="3523423374" priority="1" type="highway.path" numLanes="1" speed="5.56" shape="529345.09,5375618.37 529346.65,5375610.44 529398.60,5375541.86 529547.53,5375410.24" width="2.00" allow="pedestrian bicycle"/>
    <edge id="-1188939939#1" from="11039874415" to="11039874419" priority="1" type="highway.path" numLanes="1" speed="5.56" width="2.00" allow="pedestrian bicycle"/>
    <edge id="-1188939939#2" from="11039874418" to="11039874415" priority="1" type="highway.path" numLanes="1" speed="5.56" shape="529601.67,5375992.84 529612.69,5375952.24 529431.66,5375895.31 529302.99,5375834.13" width="2.00" allow="pedestrian bicycle"/>
    <edge id="-1188940210#0" from="11918621709" to="3523423355" priority="1" type="highway.path" numLanes="1" speed="5.56" width="2.00" allow="pedestrian bicycle"/>
    <edge id="-1188940210#1" from="11039878113" to="11918621709" priority="1" type="highway.path" numLanes="1" speed="5.56" width="2.00" allow="pedestrian bicycle"/>