<?xml version="1.0" encoding="UTF-8"?>

<!-- generated on 2024-06-13 08:57:27 by Eclipse SUMO netedit Version 1.19.0
<configuration xmlns:xsi="http://www.w3.org/2001/XMLSchema-instance" xsi:noNamespaceSchemaLocation="http://sumo.dlr.de/xsd/neteditConfiguration.xsd">

    <input>
        <sumo-net-file value="/Users/zoltanvarga/Documents/Milestone-One/Network_and_config/ingolstadt.net.xml"/>
    </input>

    <processing>
        <geometry.min-radius.fix.railways value="false"/>
        <geometry.max-grade.fix value="false"/>
        <offset.disable-normalization value="true"/>
        <lefthand value="0"/>
    </processing>

    <junctions>
        <no-turnarounds value="true"/>
        <junctions.corner-detail value="5"/>
        <junctions.limit-turn-speed value="5.50"/>
        <rectangular-lane-cut value="0"/>
    </junctions>

    <pedestrian>
        <walkingareas value="0"/>
    </pedestrian>

</configuration>
-->

<edges version="1.16" xmlns:xsi="http://www.w3.org/2001/XMLSchema-instance" xsi:noNamespaceSchemaLocation="http://sumo.dlr.de/xsd/edges_file.xsd">
    <location netOffset="-464198.88,-4952821.58" convBoundary="211142.16,450766.10,213809.54,453436.65" origBoundary="8.520516,43.618350,29.768112,49.031374" projParameter="+proj=utm +zone=32 +ellps=WGS84 +datum=WGS84 +units=m +no_defs"/>

    <edge id="-104010328" from="1200363969" to="320006202" priority="4" type="highway.residential" numLanes="2" speed="13.89" shape="212989.38,451522.35 212976.18,451525.39 212941.81,451530.77 212925.35,451533.16 212906.60,451534.67 212886.36,451535.12">
        <lane index="0" allow="pedestrian" width="2.00"/>
        <lane index="1" disallow="pedestrian tram rail_urban rail rail_electric rail_fast ship"/>
    </edge>
    <edge id="-10427692#1" from="89173755" to="89173763" priority="6" type="highway.tertiary" numLanes="3" speed="22.22" shape="211775.72,451853.73 211760.52,451808.48 211756.54,451796.68">
        <lane index="0" allow="pedestrian" width="2.00"/>
        <lane index="1" disallow="pedestrian tram rail_urban rail rail_electric rail_fast ship"/>
        <lane index="2" disallow="pedestrian tram rail_urban rail rail_electric rail_fast ship"/>
    </edge>
    <edge id="-10427692#2" from="89173751" to="89173755" priority="6" type="highway.tertiary" numLanes="2" speed="22.22">
        <lane index="0" allow="pedestrian" width="2.00"/>
        <lane index="1" disallow="pedestrian tram rail_urban rail rail_electric rail_fast ship"/>
    </edge>
    <edge id="-10427692#3" from="344963236" to="89173751" priority="6" type="highway.tertiary" numLanes="2" speed="22.22" shape="211802.35,451903.33 211793.14,451892.39 211785.67,451879.57">
        <lane index="0" allow="pedestrian" width="2.00"/>
        <lane index="1" disallow="pedestrian tram rail_urban rail rail_electric rail_fast ship"/>
    </edge>
    <edge id="-10427692#4" from="267783904" to="344963236" priority="6" type="highway.tertiary" numLanes="2" speed="22.22" shape="211830.25,451921.42 211815.96,451913.64 211802.35,451903.33">
        <lane index="0" allow="pedestrian" width="2.00"/>
        <lane index="1" disallow="pedestrian tram rail_urban rail rail_electric rail_fast ship"/>
    </edge>
    <edge id="-10427692#5" from="249179921" to="267783904" priority="6" type="highway.tertiary" numLanes="2" speed="22.22" shape="211888.94,451960.58 211876.04,451948.01 211860.74,451935.61 211830.25,451921.42">
        <lane index="0" allow="pedestrian" width="2.00"/>
        <lane index="1" disallow="pedestrian tram rail_urban rail rail_electric rail_fast ship"/>
    </edge>
    <edge id="-10427692#6" from="1423242716" to="249179921" priority="6" type="highway.tertiary" numLanes="2" speed="22.22" shape="211900.73,451995.70 211898.66,451986.34 211894.93,451973.41 211888.94,451960.58">
        <lane index="0" allow="pedestrian" width="2.00"/>
        <lane index="1" disallow="pedestrian tram rail_urban rail rail_electric rail_fast ship"/>
    </edge>
    <edge id="-10427692#7" from="1782978609" to="1423242716" priority="6" type="highway.tertiary" numLanes="2" speed="22.22" shape="211895.28,452061.72 211897.01,452029.58 211900.73,451995.70">
        <lane index="0" allow="pedestrian" width="2.00"/>
        <lane index="1" disallow="pedestrian tram rail_urban rail rail_electric rail_fast ship"/>
    </edge>
    <edge id="-10427692#8" from="313321254" to="1782978609" priority="6" type="highway.tertiary" numLanes="2" speed="22.22">
        <lane index="0" allow="pedestrian" width="2.00"/>
        <lane index="1" disallow="pedestrian tram rail_urban rail rail_electric rail_fast ship"/>
    </edge>
    <edge id="-120125554" from="267783914" to="267783911" priority="2" type="highway.service" numLanes="2" speed="5.56" shape="212052.06,451838.47 212047.31,451839.50 212010.20,451851.44">
        <lane index="0" allow="pedestrian" width="2.00"/>
        <lane index="1" disallow="pedestrian tram rail_urban rail rail_electric rail_fast ship"/>
    </edge>
    <edge id="-128361102#1" from="356694630" to="434068771" priority="7" type="highway.secondary" numLanes="2" speed="13.89" shape="211644.12,451841.31 211573.07,451870.88 211387.33,451949.58">
        <lane index="0" allow="pedestrian" width="2.00"/>
        <lane index="1" disallow="pedestrian tram rail_urban rail rail_electric rail_fast ship"/>
    </edge>
    <edge id="-129379918#1" from="497590081" to="89127267" priority="6" type="highway.tertiary" numLanes="3" speed="13.89" shape="213254.25,452951.85 213250.68,452959.77 213240.97,452982.48">
        <lane index="0" allow="pedestrian" width="2.00"/>
        <lane index="1" disallow="pedestrian tram rail_urban rail rail_electric rail_fast ship"/>
        <lane index="2" disallow="pedestrian tram rail_urban rail rail_electric rail_fast ship"/>
    </edge>
    <edge id="-129379920#0" from="1737482881" to="497590907" priority="6" type="highway.tertiary" numLanes="4" speed="13.89">
        <lane index="0" allow="pedestrian" width="2.00"/>
        <lane index="1" disallow="pedestrian tram rail_urban rail rail_electric rail_fast ship"/>
        <lane index="2" disallow="pedestrian tram rail_urban rail rail_electric rail_fast ship"/>
        <lane index="3" disallow="pedestrian tram rail_urban rail rail_electric rail_fast ship"/>
    </edge>
    <edge id="-129379920#1" from="1427494803" to="1737482881" priority="6" type="highway.tertiary" numLanes="4" speed="13.89">
        <lane index="0" allow="pedestrian" width="2.00"/>
        <lane index="1" disallow="pedestrian tram rail_urban rail rail_electric rail_fast ship"/>
        <lane index="2" disallow="pedestrian tram rail_urban rail rail_electric rail_fast ship"/>
        <lane index="3" disallow="pedestrian tram rail_urban rail rail_electric rail_fast ship"/>
    </edge>
    <edge id="-129379921#0" from="1875873944" to="cluster_1427494838_273472399" priority="6" type="highway.tertiary" numLanes="4" speed="13.89" shape="213050.09,453335.94 213037.19,453355.25">
        <lane index="0" allow="pedestrian" width="2.00"/>
        <lane index="1" disallow="pedestrian tram rail_urban rail rail_electric rail_fast ship"/>
        <lane index="2" disallow="pedestrian tram rail_urban rail rail_electric rail_fast ship"/>
        <lane index="3" disallow="pedestrian tram rail_urban rail rail_electric rail_fast ship"/>
    </edge>
    <edge id="-129379921#1" from="497590907" to="1875873944" priority="6" type="highway.tertiary" numLanes="4" speed="13.89" shape="213095.21,453261.13 213063.24,453315.57 213050.09,453335.94">
        <lane index="0" allow="pedestrian" width="2.00"/>
        <lane index="1" disallow="pedestrian tram rail_urban rail rail_electric rail_fast ship"/>
        <lane index="2" disallow="pedestrian tram rail_urban rail rail_electric rail_fast ship"/>
        <lane index="3" disallow="pedestrian tram rail_urban rail rail_electric rail_fast ship"/>
    </edge>
    <edge id="-129379922" from="3214665955" to="273472509" priority="6" type="highway.tertiary" numLanes="3" speed="13.89" shape="213181.76,453101.95 213177.13,453111.19 213162.89,453140.28">
        <lane index="0" allow="pedestrian" width="2.00"/>
        <lane index="1" disallow="pedestrian tram rail_urban rail rail_electric rail_fast ship"/>
        <lane index="2" disallow="pedestrian tram rail_urban rail rail_electric rail_fast ship"/>
    </edge>
    <edge id="-129379925" from="30624895" to="497590081" priority="6" type="highway.tertiary" numLanes="4" speed="13.89">
        <lane index="0" allow="pedestrian" width="2.00"/>
        <lane index="1" disallow="pedestrian tram rail_urban rail rail_electric rail_fast ship"/>
        <lane index="2" disallow="pedestrian tram rail_urban rail rail_electric rail_fast ship"/>
        <lane index="3" disallow="pedestrian tram rail_urban rail rail_electric rail_fast ship"/>
    </edge>
    <edge id="-136436466" from="30503246" to="30624898" priority="6" type="highway.tertiary" numLanes="4" speed="13.89">
        <lane index="0" allow="pedestrian" width="2.00"/>
        <lane index="1" disallow="pedestrian tram rail_urban rail rail_electric rail_fast ship"/>
        <lane index="2" disallow="pedestrian tram rail_urban rail rail_electric rail_fast ship"/>
        <lane index="3" disallow="pedestrian tram rail_urban rail rail_electric rail_fast ship"/>
    </edge>
    <edge id="-136436468#0" from="292578363" to="1274337864" priority="4" type="highway.residential" numLanes="2" speed="8.33" shape="212783.18,452600.02 212832.60,452623.39 212867.36,452635.15 212884.78,452641.16">
        <lane index="0" allow="pedestrian" width="2.00"/>
        <lane index="1" disallow="pedestrian tram rail_urban rail rail_electric rail_fast ship"/>
    </edge>
    <edge id="-136436468#2" from="243749518" to="292578363" priority="4" type="highway.residential" numLanes="2" speed="8.33" shape="212732.00,452562.83 212750.10,452579.08 212783.18,452600.02">
        <lane index="0" allow="pedestrian" width="2.00"/>
        <lane index="1" disallow="pedestrian tram rail_urban rail rail_electric rail_fast ship"/>
    </edge>
    <edge id="-136728347#4" from="274579651" to="273906289" priority="7" type="highway.secondary" numLanes="2" speed="13.89" shape="212429.94,451680.88 212402.54,451678.16 212391.24,451677.03 212338.92,451671.82 212277.92,451666.08 212249.05,451664.41 212239.36,451664.04 212209.65,451663.73 212186.48,451663.65 212151.02,451665.85">
        <lane index="0" allow="pedestrian" width="2.00"/>
        <lane index="1" disallow="pedestrian tram rail_urban rail rail_electric rail_fast ship"/>
    </edge>
    <edge id="-137132992#2" from="1840499770" to="1504207551" priority="4" type="highway.residential" numLanes="2" speed="8.33" shape="212241.41,452350.23 212243.75,452361.79 212243.51,452374.98 212242.99,452402.97 212242.84,452413.88">
        <lane index="0" allow="pedestrian" width="2.00"/>
        <lane index="1" disallow="pedestrian tram rail_urban rail rail_electric rail_fast ship"/>
    </edge>
    <edge id="-137454133#0" from="3603792102" to="1782978746" priority="4" type="highway.residential" numLanes="3" speed="13.89">
        <lane index="0" allow="pedestrian" width="2.00"/>
        <lane index="1" disallow="pedestrian tram rail_urban rail rail_electric rail_fast ship"/>
        <lane index="2" disallow="pedestrian tram rail_urban rail rail_electric rail_fast ship"/>
    </edge>
    <edge id="-137454133#1" from="243749561" to="3603792102" priority="4" type="highway.residential" numLanes="3" speed="13.89">
        <lane index="0" allow="pedestrian" width="2.00"/>
        <lane index="1" disallow="pedestrian tram rail_urban rail rail_electric rail_fast ship"/>
        <lane index="2" disallow="pedestrian tram rail_urban rail rail_electric rail_fast ship"/>
    </edge>
    <edge id="-137454133#5" from="307619666" to="243749561" priority="4" type="highway.residential" numLanes="2" speed="13.89" shape="212150.49,452323.38 212148.86,452334.66 212109.55,452397.08 212102.77,452403.74 212098.78,452405.88 212094.04,452408.41 212076.72,452408.44 212052.70,452399.04 212041.95,452395.66 212028.63,452394.90 212010.07,452399.94 212000.81,452408.35 211996.92,452411.88">
        <lane index="0" allow="pedestrian" width="2.00"/>
        <lane index="1" disallow="pedestrian tram rail_urban rail rail_electric rail_fast ship"/>
    </edge>
    <edge id="-138300620#6" from="1516302011" to="1516302036" priority="4" type="highway.residential" numLanes="2" speed="13.89" shape="212424.48,452104.45 212404.99,452164.81 212403.90,452168.19 212400.88,452177.54 212399.05,452183.23 212396.08,452196.92 212395.06,452207.00 212393.72,452225.95 212392.65,452240.98 212392.02,452249.83">
        <lane index="0" allow="pedestrian" width="2.00"/>
        <lane index="1" disallow="pedestrian tram rail_urban rail rail_electric rail_fast ship"/>
    </edge>
    <edge id="-160314345#0" from="267782468" to="243641575" priority="4" type="highway.residential" numLanes="2" speed="8.33">
        <lane index="0" allow="pedestrian" width="2.00"/>
        <lane index="1" disallow="pedestrian tram rail_urban rail rail_electric rail_fast ship"/>
    </edge>
    <edge id="-160314345#1" from="5497313246" to="267782468" priority="4" type="highway.residential" numLanes="2" speed="8.33">
        <lane index="0" allow="pedestrian" width="2.00"/>
        <lane index="1" disallow="pedestrian tram rail_urban rail rail_electric rail_fast ship"/>
    </edge>
    <edge id="-160314345#2" from="267782465" to="5497313246" priority="4" type="highway.residential" numLanes="2" speed="8.33" shape="213215.38,452276.20 213208.73,452274.35 213175.11,452264.98 213125.07,452245.12">
        <lane index="0" allow="pedestrian" width="2.00"/>
        <lane index="1" disallow="pedestrian tram rail_urban rail rail_electric rail_fast ship"/>
    </edge>
    <edge id="-160314345#3" from="267782464" to="267782465" priority="4" type="highway.residential" numLanes="2" speed="8.33" shape="213298.10,452289.06 213257.13,452285.09 213215.38,452276.20">
        <lane index="0" allow="pedestrian" width="2.00"/>
        <lane index="1" disallow="pedestrian tram rail_urban rail rail_electric rail_fast ship"/>
    </edge>
    <edge id="-160314345#4" from="267517559" to="267782464" priority="4" type="highway.residential" numLanes="2" speed="8.33">
        <lane index="0" allow="pedestrian" width="2.00"/>
        <lane index="1" disallow="pedestrian tram rail_urban rail rail_electric rail_fast ship"/>
    </edge>
    <edge id="-160314345#5" from="267517560" to="267517559" priority="4" type="highway.residential" numLanes="2" speed="8.33">
        <lane index="0" allow="pedestrian" width="2.00"/>
        <lane index="1" disallow="pedestrian tram rail_urban rail rail_electric rail_fast ship"/>
    </edge>
    <edge id="-160314346#0" from="243641576" to="267783847" priority="4" type="highway.residential" numLanes="2" speed="8.33">
        <lane index="0" allow="pedestrian" width="2.00"/>
        <lane index="1" disallow="pedestrian tram rail_urban rail rail_electric rail_fast ship"/>
    </edge>
    <edge id="-160314346#1" from="243641575" to="243641576" priority="4" type="highway.residential" numLanes="2" speed="8.33">
        <lane index="0" allow="pedestrian" width="2.00"/>
        <lane index="1" disallow="pedestrian tram rail_urban rail rail_electric rail_fast ship"/>
    </edge>
    <edge id="-160314351#0" from="267783870" to="267783861" priority="4" type="highway.residential" numLanes="2" speed="13.89">
        <lane index="0" allow="pedestrian" width="2.00"/>
        <lane index="1" disallow="pedestrian tram rail_urban rail rail_electric rail_fast ship"/>
    </edge>
    <edge id="-160314351#1" from="267783852" to="267783870" priority="4" type="highway.residential" numLanes="2" speed="13.89">
        <lane index="0" allow="pedestrian" width="2.00"/>
        <lane index="1" disallow="pedestrian tram rail_urban rail rail_electric rail_fast ship"/>
    </edge>
    <edge id="-164051413" from="cluster_274083968_cluster_1200364014_1200364088" to="cluster_1526094852_194342371" priority="6" type="highway.tertiary" numLanes="2" speed="13.89" shape="212983.02,451458.25 212968.39,451454.26">
        <lane index="0" allow="pedestrian" width="2.00"/>
        <lane index="1" disallow="pedestrian tram rail_urban rail rail_electric rail_fast ship"/>
    </edge>
    <edge id="-164078530" from="3214665956" to="30624890" priority="6" type="highway.tertiary" numLanes="3" speed="13.89">
        <lane index="0" allow="pedestrian" width="2.00"/>
        <lane index="1" disallow="pedestrian tram rail_urban rail rail_electric rail_fast ship"/>
        <lane index="2" disallow="pedestrian tram rail_urban rail rail_electric rail_fast ship"/>
    </edge>
    <edge id="-170018165#0" from="1863241632" to="1863241614" priority="7" type="highway.secondary" numLanes="3" speed="16.67">
        <lane index="0" allow="pedestrian" width="2.00"/>
        <lane index="1" disallow="pedestrian tram rail_urban rail rail_electric rail_fast ship"/>
        <lane index="2" disallow="pedestrian tram rail_urban rail rail_electric rail_fast ship"/>
    </edge>
    <edge id="-170018165#1" from="1863241639" to="1863241632" priority="7" type="highway.secondary" numLanes="4" speed="16.67">
        <lane index="0" allow="pedestrian" width="2.00"/>
        <lane index="1" disallow="pedestrian tram rail_urban rail rail_electric rail_fast ship"/>
        <lane index="2" disallow="pedestrian tram rail_urban rail rail_electric rail_fast ship"/>
        <lane index="3" disallow="pedestrian tram rail_urban rail rail_electric rail_fast ship"/>
    </edge>
    <edge id="-170018165#2.164" from="gneJ22" to="gneJ23" priority="7" type="highway.secondary" numLanes="3" speed="16.67">
        <lane index="0" allow="pedestrian" width="2.00"/>
        <lane index="1" disallow="pedestrian tram rail_urban rail rail_electric rail_fast ship"/>
        <lane index="2" disallow="pedestrian tram rail_urban rail rail_electric rail_fast ship"/>
    </edge>
    <edge id="-170018165#2.210" from="gneJ23" to="1863241639" priority="7" type="highway.secondary" numLanes="4" speed="16.67">
        <lane index="0" allow="pedestrian" width="2.00"/>
        <lane index="1" disallow="pedestrian tram rail_urban rail rail_electric rail_fast ship"/>
        <lane index="2" disallow="pedestrian tram rail_urban rail rail_electric rail_fast ship"/>
        <lane index="3" disallow="pedestrian tram rail_urban rail rail_electric rail_fast ship"/>
    </edge>
    <edge id="-170018165#3" from="2330725114" to="gneJ22" priority="7" type="highway.secondary" numLanes="2" speed="16.67" shape="211730.78,452677.54 211742.66,452648.51 211771.33,452578.49 211804.72,452498.57 211805.72,452496.12">
        <lane index="0" allow="pedestrian" width="2.00"/>
        <lane index="1" disallow="pedestrian tram rail_urban rail rail_electric rail_fast ship"/>
    </edge>
    <edge id="-170425366#6" from="308796066" to="1815670952" priority="4" type="highway.residential" numLanes="2" speed="13.89" shape="211706.63,451607.94 211699.82,451609.76 211648.12,451621.79 211598.74,451632.86 211596.66,451635.89 211596.40,451639.84 211605.31,451669.88 211617.34,451707.68 211620.49,451711.26 211625.86,451712.92 211664.55,451699.72 211716.07,451684.33 211723.16,451682.62">
        <lane index="0" allow="pedestrian" width="2.00"/>
        <lane index="1" disallow="pedestrian tram rail_urban rail rail_electric rail_fast ship"/>
    </edge>
    <edge id="-173169611#0" from="274081675" to="cluster_1757124350_1757124352" priority="5" type="highway.unclassified" numLanes="2" speed="13.89" shape="213001.50,451125.40 213016.24,451139.94 213025.32,451149.05 213036.31,451158.09 213056.68,451170.85 213062.13,451173.79">
        <lane index="0" allow="pedestrian" width="2.00"/>
        <lane index="1" disallow="pedestrian tram rail_urban rail rail_electric rail_fast ship"/>
    </edge>
    <edge id="-173177776#1" from="318410702" to="1840038412" priority="3" type="highway.living_street" numLanes="1" speed="2.78" shape="211692.46,451348.01 211687.01,451345.75 211652.67,451329.70 211642.31,451332.68" disallow="pedestrian tram rail_urban rail rail_electric rail_fast ship"/>
    <edge id="-173203413#7" from="cluster_497590130_656751589" to="497590122" priority="4" type="highway.residential" numLanes="2" speed="13.89" shape="212573.07,452331.09 212571.11,452336.37 212564.51,452354.15 212554.90,452380.03 212546.10,452400.87 212534.71,452427.86 212530.24,452441.22 212523.31,452461.95 212515.99,452481.46 212501.65,452519.66">
        <lane index="0" allow="pedestrian" width="2.00"/>
        <lane index="1" disallow="pedestrian tram rail_urban rail rail_electric rail_fast ship"/>
    </edge>
    <edge id="-174800513" from="243641585" to="cluster_1840209209_268417350" priority="6" type="highway.tertiary" numLanes="3" speed="13.89" shape="212838.90,452442.96 212850.59,452420.99">
        <lane index="0" allow="pedestrian" width="2.00"/>
        <lane index="1" disallow="pedestrian tram rail_urban rail rail_electric rail_fast ship"/>
        <lane index="2" disallow="pedestrian tram rail_urban rail rail_electric rail_fast ship"/>
    </edge>
    <edge id="-18809672#1" from="243636120" to="89173763" priority="5" type="highway.unclassified" numLanes="2" speed="8.33" shape="211748.74,451769.58 211753.59,451787.42 211756.54,451796.68">
        <lane index="0" allow="pedestrian" width="2.00"/>
        <lane index="1" disallow="pedestrian tram rail_urban rail rail_electric rail_fast ship"/>
    </edge>
    <edge id="-18809672#4" from="1815670952" to="243636120" priority="5" type="highway.unclassified" numLanes="2" speed="8.33" shape="211723.16,451682.62 211729.30,451706.03 211731.60,451715.03 211748.74,451769.58">
        <lane index="0" allow="pedestrian" width="2.00"/>
        <lane index="1" disallow="pedestrian tram rail_urban rail rail_electric rail_fast ship"/>
    </edge>
    <edge id="-18809672#5" from="273906276" to="1815670952" priority="5" type="highway.unclassified" numLanes="2" speed="8.33">
        <lane index="0" allow="pedestrian" width="2.00"/>
        <lane index="1" disallow="pedestrian tram rail_urban rail rail_electric rail_fast ship"/>
    </edge>
    <edge id="-18809672#6" from="308796066" to="273906276" priority="5" type="highway.unclassified" numLanes="2" speed="8.33">
        <lane index="0" allow="pedestrian" width="2.00"/>
        <lane index="1" disallow="pedestrian tram rail_urban rail rail_electric rail_fast ship"/>
    </edge>
    <edge id="-18809672#7" from="cluster_1815670941_305559016" to="308796066" priority="5" type="highway.unclassified" numLanes="2" speed="8.33" shape="211694.37,451554.17 211706.63,451607.94">
        <lane index="0" allow="pedestrian" width="2.00"/>
        <lane index="1" disallow="pedestrian tram rail_urban rail rail_electric rail_fast ship"/>
    </edge>
    <edge id="-18809673#1.275" from="gneJ129" to="89173808" priority="6" type="highway.tertiary" numLanes="3" speed="13.89" shape="211732.56,451158.93 211743.13,451163.29 211766.89,451172.24 211776.71,451176.17">
        <lane index="0" allow="pedestrian" width="2.00"/>
        <lane index="1" disallow="pedestrian tram rail_urban rail rail_electric rail_fast ship"/>
        <lane index="2" disallow="pedestrian tram rail_urban rail rail_electric rail_fast ship"/>
    </edge>
    <edge id="-18809673#6" from="89173831" to="gneJ129" priority="6" type="highway.tertiary" numLanes="2" speed="13.89" shape="211318.99,451077.68 211337.22,451073.35 211349.11,451071.78 211359.13,451070.89 211365.81,451070.29 211401.00,451068.63 211425.79,451067.49 211467.00,451066.42 211479.75,451066.36 211524.91,451066.35 211556.18,451070.75 211581.71,451077.04 211608.34,451086.29 211634.06,451099.88 211703.03,451144.30 211724.49,451155.61 211732.56,451158.93">
        <lane index="0" allow="pedestrian" width="2.00"/>
        <lane index="1" disallow="pedestrian tram rail_urban rail rail_electric rail_fast ship"/>
    </edge>
    <edge id="-18813598#1" from="3079046105" to="89173808" priority="6" type="highway.tertiary" numLanes="3" speed="13.89" shape="211841.83,451199.27 211837.18,451197.58 211785.24,451179.50 211776.71,451176.17">
        <lane index="0" allow="pedestrian" width="2.00"/>
        <lane index="1" disallow="pedestrian tram rail_urban rail rail_electric rail_fast ship"/>
        <lane index="2" disallow="pedestrian tram rail_urban rail rail_electric rail_fast ship"/>
    </edge>
    <edge id="-18813598#6" from="194342319" to="3079046105" priority="6" type="highway.tertiary" numLanes="2" speed="13.89" shape="212065.35,451262.37 212013.04,451248.37 211984.36,451240.69 211978.80,451239.20 211953.25,451232.10 211925.09,451224.26 211871.78,451208.69 211841.83,451199.27">
        <lane index="0" allow="pedestrian" width="2.00"/>
        <lane index="1" disallow="pedestrian tram rail_urban rail rail_electric rail_fast ship"/>
    </edge>
    <edge id="-18813598#7" from="274604006" to="194342319" priority="6" type="highway.tertiary" numLanes="2" speed="13.89" shape="212363.17,451347.03 212346.05,451348.20 212328.93,451348.23 212301.22,451347.05 212273.16,451344.22 212231.73,451333.12 212187.97,451317.83 212145.97,451297.91 212065.35,451262.37">
        <lane index="0" allow="pedestrian" width="2.00"/>
        <lane index="1" disallow="pedestrian tram rail_urban rail rail_electric rail_fast ship"/>
    </edge>
    <edge id="-18813598#8" from="194342350" to="274604006" priority="6" type="highway.tertiary" numLanes="2" speed="13.89" shape="212494.81,451334.42 212441.79,451333.27 212363.17,451347.03">
        <lane index="0" allow="pedestrian" width="2.00"/>
        <lane index="1" disallow="pedestrian tram rail_urban rail rail_electric rail_fast ship"/>
    </edge>
    <edge id="-201089420#1" from="273472398" to="497590173" priority="6" type="highway.tertiary" numLanes="2" speed="13.89" shape="212292.04,452878.01 212333.32,452845.30 212358.00,452826.05">
        <lane index="0" allow="pedestrian" width="2.00"/>
        <lane index="1" disallow="pedestrian tram rail_urban rail rail_electric rail_fast ship"/>
    </edge>
    <edge id="-201089423#1" from="249176474" to="32564122" priority="7" type="highway.secondary" numLanes="3" speed="13.89" shape="213191.28,451809.71 213213.13,451862.73 213220.84,451881.96">
        <lane index="0" allow="pedestrian" width="2.00"/>
        <lane index="1" disallow="pedestrian tram rail_urban rail rail_electric rail_fast ship"/>
        <lane index="2" disallow="pedestrian tram rail_urban rail rail_electric rail_fast ship"/>
    </edge>
    <edge id="-201089423#2" from="32564121" to="249176474" priority="7" type="highway.secondary" numLanes="3" speed="13.89" shape="213168.51,451758.74 213180.23,451782.69 213191.28,451809.71">
        <lane index="0" allow="pedestrian" width="2.00"/>
        <lane index="1" disallow="pedestrian tram rail_urban rail rail_electric rail_fast ship"/>
        <lane index="2" disallow="pedestrian tram rail_urban rail rail_electric rail_fast ship"/>
    </edge>
    <edge id="-201201945#0" from="243641589" to="gneJ26" priority="6" type="highway.tertiary" numLanes="2" speed="13.89" shape="212748.61,452551.29 212774.22,452528.93 212804.38,452496.00">
        <lane index="0" allow="pedestrian" width="2.00"/>
        <lane index="1" disallow="pedestrian tram rail_urban rail rail_electric rail_fast ship"/>
    </edge>
    <edge id="-201201945#0.78" from="gneJ26" to="243641585" priority="6" type="highway.tertiary" numLanes="3" speed="13.89" shape="212804.38,452496.00 212804.57,452495.79 212838.90,452442.96">
        <lane index="0" allow="pedestrian" width="2.00"/>
        <lane index="1" disallow="pedestrian tram rail_urban rail rail_electric rail_fast ship"/>
        <lane index="2" disallow="pedestrian tram rail_urban rail rail_electric rail_fast ship"/>
    </edge>
    <edge id="-201201945#1" from="243749518" to="243641589" priority="6" type="highway.tertiary" numLanes="2" speed="13.89">
        <lane index="0" allow="pedestrian" width="2.00"/>
        <lane index="1" disallow="pedestrian tram rail_urban rail rail_electric rail_fast ship"/>
    </edge>
    <edge id="-201201945#2" from="243749545" to="243749518" priority="6" type="highway.tertiary" numLanes="2" speed="13.89" shape="212628.08,452625.24 212657.77,452609.25 212708.94,452579.32 212732.00,452562.83">
        <lane index="0" allow="pedestrian" width="2.00"/>
        <lane index="1" disallow="pedestrian tram rail_urban rail rail_electric rail_fast ship"/>
    </edge>
    <edge id="-201201945#6" from="292572205" to="243749545" priority="6" type="highway.tertiary" numLanes="2" speed="13.89" shape="212474.90,452739.37 212511.38,452710.79 212548.71,452681.54 212568.35,452666.98 212596.37,452646.20 212628.08,452625.24">
        <lane index="0" allow="pedestrian" width="2.00"/>
        <lane index="1" disallow="pedestrian tram rail_urban rail rail_electric rail_fast ship"/>
    </edge>
    <edge id="-201201945#7" from="497590178" to="292572205" priority="6" type="highway.tertiary" numLanes="2" speed="13.89">
        <lane index="0" allow="pedestrian" width="2.00"/>
        <lane index="1" disallow="pedestrian tram rail_urban rail rail_electric rail_fast ship"/>
    </edge>
    <edge id="-201201945#8" from="497590173" to="497590178" priority="6" type="highway.tertiary" numLanes="2" speed="13.89" shape="212358.00,452826.05 212396.51,452798.37 212451.24,452757.87">
        <lane index="0" allow="pedestrian" width="2.00"/>
        <lane index="1" disallow="pedestrian tram rail_urban rail rail_electric rail_fast ship"/>
    </edge>
    <edge id="-201238718#0" from="243641583" to="243641575" priority="6" type="highway.tertiary" numLanes="2" speed="13.89" shape="212873.56,452361.55 212890.53,452322.65 212901.60,452300.63 212914.33,452279.34 212921.56,452268.33 212935.98,452247.53 212959.75,452218.88 212974.70,452204.46 212990.66,452191.68">
        <lane index="0" allow="pedestrian" width="2.00"/>