<?xml version="1.0" encoding="UTF-8"?>

<!-- generated on 2024-06-13 07:54:07 by Eclipse SUMO netedit Version 1.19.0
<configuration xmlns:xsi="http://www.w3.org/2001/XMLSchema-instance" xsi:noNamespaceSchemaLocation="http://sumo.dlr.de/xsd/neteditConfiguration.xsd">

    <input>
        <sumo-net-file value="/Users/zoltanvarga/Documents/Milestone-One/Network_and_config/arterial.net.xml"/>
    </input>

    <processing>
        <geometry.min-radius.fix.railways value="false"/>
        <geometry.max-grade.fix value="false"/>
        <offset.disable-normalization value="true"/>
        <lefthand value="0"/>
    </processing>

    <junctions>
        <no-turnarounds value="true"/>
        <junctions.corner-detail value="5"/>
        <junctions.limit-turn-speed value="5.50"/>
        <rectangular-lane-cut value="0"/>
    </junctions>

    <pedestrian>
        <walkingareas value="0"/>
    </pedestrian>

</configuration>
-->

<connections version="1.16" xmlns:xsi="http://www.w3.org/2001/XMLSchema-instance" xsi:noNamespaceSchemaLocation="http://sumo.dlr.de/xsd/connections_file.xsd">
    <connection from="np10_nt15" to="nt15_nt14" fromLane="0" toLane="0"/>
    <connection from="np10_nt15" to="nt15_nt11" fromLane="0" toLane="0"/>
    <connection from="np10_nt15" to="nt15_nt16" fromLane="0" toLane="1"/>

    <connection from="np11_nt14" to="nt14_nt13" fromLane="0" toLane="0"/>
    <connection from="np11_nt14" to="nt14_nt10" fromLane="0" toLane="0"/>
    <connection from="np11_nt14" to="nt14_nt15" fromLane="0" toLane="1"/>

    <connection from="np12_nt13" to="nt13_np13" fromLane="0" toLane="0"/>
    <connection from="np12_nt13" to="nt13_nt9" fromLane="0" toLane="0"/>
    <connection from="np12_nt13" to="nt13_nt14" fromLane="0" toLane="1"/>

    <connection from="np13_nt13" to="nt13_nt9" fromLane="0" toLane="0"/>
    <connection from="np13_nt13" to="nt13_nt14" fromLane="0" toLane="0"/>
    <connection from="np13_nt13" to="nt13_np12" fromLane="1" toLane="0"/>

    <connection from="np14_nt9" to="nt9_nt5" fromLane="0" toLane="0"/>
    <connection from="np14_nt9" to="nt9_nt10" fromLane="0" toLane="0"/>
    <connection from="np14_nt9" to="nt9_nt13" fromLane="1" toLane="0"/>

    <connection from="np15_nt5" to="nt5_nt1" fromLane="0" toLane="0"/>
    <connection from="np15_nt5" to="nt5_nt6" fromLane="0" toLane="0"/>
    <connection from="np15_nt5" to="nt5_nt9" fromLane="1" toLane="0"/>

    <connection from="np16_nt1" to="nt1_np1" fromLane="0" toLane="0"/>
    <connection from="np16_nt1" to="nt1_nt2" fromLane="0" toLane="0"/>
    <connection from="np16_nt1" to="nt1_nt5" fromLane="1" toLane="0"/>

    <connection from="np1_nt1" to="nt1_nt2" fromLane="0" toLane="0"/>
    <connection from="np1_nt1" to="nt1_nt5" fromLane="0" toLane="0"/>
    <connection from="np1_nt1" to="nt1_np16" fromLane="0" toLane="1"/>

    <connection from="np2_nt2" to="nt2_nt3" fromLane="0" toLane="0"/>
    <connection from="np2_nt2" to="nt2_nt6" fromLane="0" toLane="0"/>
    <connection from="np2_nt2" to="nt2_nt1" fromLane="0" toLane="1"/>

    <connection from="np3_nt3" to="nt3_nt4" fromLane="0" toLane="0"/>
    <connection from="np3_nt3" to="nt3_nt7" fromLane="0" toLane="0"/>
    <connection from="np3_nt3" to="nt3_nt2" fromLane="0" toLane="1"/>

    <connection from="np4_nt4" to="nt4_np5" fromLane="0" toLane="0"/>
    <connection from="np4_nt4" to="nt4_nt8" fromLane="0" toLane="0"/>
    <connection from="np4_nt4" to="nt4_nt3" fromLane="0" toLane="1"/>

    <connection from="np5_nt4" to="nt4_nt8" fromLane="0" toLane="0"/>
    <connection from="np5_nt4" to="nt4_nt3" fromLane="0" toLane="0"/>
    <connection from="np5_nt4" to="nt4_np4" fromLane="1" toLane="0"/>

    <connection from="np6_nt8" to="nt8_nt12" fromLane="0" toLane="0"/>
    <connection from="np6_nt8" to="nt8_nt7" fromLane="0" toLane="0"/>
    <connection from="np6_nt8" to="nt8_nt4" fromLane="1" toLane="0"/>

    <connection from="np7_nt12" to="nt12_nt16" fromLane="0" toLane="0"/>
    <connection from="np7_nt12" to="nt12_nt11" fromLane="0" toLane="0"/>
    <connection from="np7_nt12" to="nt12_nt8" fromLane="1" toLane="0"/>

    <connection from="np8_nt16" to="nt16_np9" fromLane="0" toLane="0"/>
    <connection from="np8_nt16" to="nt16_nt15" fromLane="0" toLane="0"/>
    <connection from="np8_nt16" to="nt16_nt12" fromLane="1" toLane="0"/>

    <connection from="np9_nt16" to="nt16_nt15" fromLane="0" toLane="0"/>
    <connection from="np9_nt16" to="nt16_nt12" fromLane="0" toLane="0"/>
    <connection from="np9_nt16" to="nt16_np8" fromLane="0" toLane="1"/>

    <connection from="nt10_nt11" to="nt11_nt7" fromLane="0" toLane="0"/>
    <connection from="nt10_nt11" to="nt11_nt12" fromLane="0" toLane="0"/>
    <connection from="nt10_nt11" to="nt11_nt15" fromLane="1" toLane="0"/>

    <connection from="nt10_nt14" to="nt14_nt15" fromLane="0" toLane="0"/>
    <connection from="nt10_nt14" to="nt14_np11" fromLane="0" toLane="0"/>
    <connection from="nt10_nt14" to="nt14_nt13" fromLane="0" toLane="1"/>

    <connection from="nt10_nt6" to="nt6_nt5" fromLane="0" toLane="0"/>
    <connection from="nt10_nt6" to="nt6_nt2" fromLane="0" toLane="0"/>
    <connection from="nt10_nt6" to="nt6_nt7" fromLane="0" toLane="1"/>

    <connection from="nt10_nt9" to="nt9_nt13" fromLane="0" toLane="0"/>
    <connection from="nt10_nt9" to="nt9_np14" fromLane="0" toLane="0"/>
    <connection from="nt10_nt9" to="nt9_nt5" fromLane="1" toLane="0"/>

    <connection from="nt11_nt10" to="nt10_nt14" fromLane="0" toLane="0"/>
    <connection from="nt11_nt10" to="nt10_nt9" fromLane="0" toLane="0"/>
    <connection from="nt11_nt10" to="nt10_nt6" fromLane="1" toLane="0"/>

    <connection from="nt11_nt12" to="nt12_nt8" fromLane="0" toLane="0"/>
    <connection from="nt11_nt12" to="nt12_np7" fromLane="0" toLane="0"/>
    <connection from="nt11_nt12" to="nt12_nt16" fromLane="1" toLane="0"/>

    <connection from="nt11_nt15" to="nt15_nt16" fromLane="0" toLane="0"/>
    <connection from="nt11_nt15" to="nt15_np10" fromLane="0" toLane="0"/>
    <connection from="nt11_nt15" to="nt15_nt14" fromLane="0" toLane="1"/>

    <connection from="nt11_nt7" to="nt7_nt6" fromLane="0" toLane="0"/>
    <connection from="nt11_nt7" to="nt7_nt3" fromLane="0" toLane="0"/>
    <connection from="nt11_nt7" to="nt7_nt8" fromLane="0" toLane="1"/>

    <connection from="nt12_np7" to="np7_nt12" fromLane="1" toLane="1"/>

    <connection from="nt12_nt11" to="nt11_nt15" fromLane="0" toLane="0"/>
    <connection from="nt12_nt11" to="nt11_nt10" fromLane="0" toLane="0"/>
    <connection from="nt12_nt11" to="nt11_nt7" fromLane="1" toLane="0"/>

    <connection from="nt12_nt16" to="nt16_np8" fromLane="0" toLane="0"/>
    <connection from="nt12_nt16" to="nt16_np9" fromLane="0" toLane="0"/>
    <connection from="nt12_nt16" to="nt16_nt15" fromLane="0" toLane="1"/>

    <connection from="nt12_nt8" to="nt8_nt7" fromLane="0" toLane="0"/>
    <connection from="nt12_nt8" to="nt8_nt4" fromLane="0" toLane="0"/>
    <connection from="nt12_nt8" to="nt8_np6" fromLane="0" toLane="1"/>

    <connection from="nt13_np12" to="np12_nt13" fromLane="0" toLane="0"/>

    <connection from="nt13_np13" to="np13_nt13" fromLane="1" toLane="1"/>

    <connection from="nt13_nt14" to="nt14_nt10" fromLane="0" toLane="0"/>
    <connection from="nt13_nt14" to="nt14_nt15" fromLane="0" toLane="0"/>
    <connection from="nt13_nt14" to="nt14_np11" fromLane="1" toLane="0"/>

    <connection from="nt13_nt9" to="nt9_np14" fromLane="0" toLane="0"/>
    <connection from="nt13_nt9" to="nt9_nt5" fromLane="0" toLane="0"/>
    <connection from="nt13_nt9" to="nt9_nt10" fromLane="0" toLane="1"/>

    <connection from="nt14_np11" to="np11_nt14" fromLane="0" toLane="0"/>

    <connection from="nt14_nt10" to="nt10_nt9" fromLane="0" toLane="0"/>
    <connection from="nt14_nt10" to="nt10_nt6" fromLane="0" toLane="0"/>
    <connection from="nt14_nt10" to="nt10_nt11" fromLane="0" toLane="1"/>

    <connection from="nt14_nt13" to="nt13_np12" fromLane="0" toLane="0"/>
    <connection from="nt14_nt13" to="nt13_np13" fromLane="0" toLane="0"/>
    <connection from="nt14_nt13" to="nt13_nt9" fromLane="1" toLane="0"/>

    <connection from="nt14_nt15" to="nt15_nt11" fromLane="0" toLane="0"/>
    <connection from="nt14_nt15" to="nt15_nt16" fromLane="0" toLane="0"/>
    <connection from="nt14_nt15" to="nt15_np10" fromLane="1" toLane="0"/>

    <connection from="nt15_np10" to="np10_nt15" fromLane="0" toLane="0"/>

    <connection from="nt15_nt11" to="nt11_nt10" fromLane="0" toLane="0"/>
    <connection from="nt15_nt11" to="nt11_nt7" fromLane="0" toLane="0"/>
    <connection from="nt15_nt11" to="nt11_nt12" fromLane="0" toLane="1"/>

    <connection from="nt15_nt14" to="nt14_np11" fromLane="0" toLane="0"/>
    <connection from="nt15_nt14" to="nt14_nt13" fromLane="0" toLane="0"/>
    <connection from="nt15_nt14" to="nt14_nt10" fromLane="1" toLane="0"/>

    <connection from="nt15_nt16" to="nt16_nt12" fromLane="0" toLane="0"/>
    <connection from="nt15_nt16" to="nt16_np8" fromLane="0" toLane="0"/>
    <connection from="nt15_nt16" to="nt16_np9" fromLane="1" toLane="0"/>

    <connection from="nt16_np8" to="np8_nt16" fromLane="1" toLane="1"/>

    <connection from="nt16_np9" to="np9_nt16" fromLane="0" toLane="0"/>

    <connection from="nt16_nt12" to="nt12_nt11" fromLane="0" toLane="0"/>
    <connection from="nt16_nt12" to="nt12_nt8" fromLane="0" toLane="0"/>
    <connection from="nt16_nt12" to="nt12_np7" fromLane="0" toLane="1"/>

    <connection from="nt16_nt15" to="nt15_np10" fromLane="0" toLane="0"/>
    <connection from="nt16_nt15" to="nt15_nt14" fromLane="0" toLane="0"/>
    <connection from="nt16_nt15" to="nt15_nt11" fromLane="1" toLane="0"/>

    <connection from="nt1_np1" to="np1_nt1" fromLane="0" toLane="0"/>

    <connection from="nt1_np16" to="np16_nt1" fromLane="1" toLane="1"/>

    <connection from="nt1_nt2" to="nt2_np2" fromLane="0" toLane="0"/>
    <connection from="nt1_nt2" to="nt2_nt3" fromLane="0" toLane="0"/>
    <connection from="nt1_nt2" to="nt2_nt6" fromLane="1" toLane="0"/>

    <connection from="nt1_nt5" to="nt5_nt6" fromLane="0" toLane="0"/>
    <connection from="nt1_nt5" to="nt5_nt9" fromLane="0" toLane="0"/>
    <connection from="nt1_nt5" to="nt5_np15" fromLane="0" toLane="1"/>

    <connection from="nt2_np2" to="np2_nt2" fromLane="0" toLane="0"/>

    <connection from="nt2_nt1" to="nt1_nt5" fromLane="0" toLane="0"/>
    <connection from="nt2_nt1" to="nt1_np16" fromLane="0" toLane="0"/>
    <connection from="nt2_nt1" to="nt1_np1" fromLane="1" toLane="0"/>

    <connection from="nt2_nt3" to="nt3_np3" fromLane="0" toLane="0"/>
    <connection from="nt2_nt3" to="nt3_nt4" fromLane="0" toLane="0"/>
    <connection from="nt2_nt3" to="nt3_nt7" fromLane="1" toLane="0"/>

    <connection from="nt2_nt6" to="nt6_nt7" fromLane="0" toLane="0"/>
    <connection from="nt2_nt6" to="nt6_nt10" fromLane="0" toLane="0"/>
    <connection from="nt2_nt6" to="nt6_nt5" fromLane="0" toLane="1"/>

    <connection from="nt3_np3" to="np3_nt3" fromLane="0" toLane="0"/>

    <connection from="nt3_nt2" to="nt2_nt6" fromLane="0" toLane="0"/>
    <connection from="nt3_nt2" to="nt2_nt1" fromLane="0" toLane="0"/>
    <connection from="nt3_nt2" to="nt2_np2" fromLane="1" toLane="0"/>

    <connection from="nt3_nt4" to="nt4_np4" fromLane="0" toLane="0"/>
    <connection from="nt3_nt4" to="nt4_np5" fromLane="0" toLane="0"/>
    <connection from="nt3_nt4" to="nt4_nt8" fromLane="1" toLane="0"/>

    <connection from="nt3_nt7" to="nt7_nt8" fromLane="0" toLane="0"/>
    <connection from="nt3_nt7" to="nt7_nt11" fromLane="0" toLane="0"/>
    <connection from="nt3_nt7" to="nt7_nt6" fromLane="0" toLane="1"/>

    <connection from="nt4_np4" to="np4_nt4" fromLane="0" toLane="0"/>

    <connection from="nt4_np5" to="np5_nt4" fromLane="1" toLane="1"/>

    <connection from="nt4_nt3" to="nt3_nt7" fromLane="0" toLane="0"/>
    <connection from="nt4_nt3" to="nt3_nt2" fromLane="0" toLane="0"/>
    <connection from="nt4_nt3" to="nt3_np3" fromLane="1" toLane="0"/>

    <connection from="nt4_nt8" to="nt8_np6" fromLane="0" toLane="0"/>
    <connection from="nt4_nt8" to="nt8_nt12" fromLane="0" toLane="0"/>
    <connection from="nt4_nt8" to="nt8_nt7" fromLane="0" toLane="1"/>

    <connection from="nt5_np15" to="np15_nt5" fromLane="1" toLane="1"/>

    <connection from="nt5_nt1" to="nt1_np16" fromLane="0" toLane="0"/>
    <connection from="nt5_nt1" to="nt1_np1" fromLane="0" toLane="0"/>
    <connection from="nt5_nt1" to="nt1_nt2" fromLane="0" toLane="1"/>

    <connection from="nt5_nt6" to="nt6_nt2" fromLane="0" toLane="0"/>
    <connection from="nt5_nt6" to="nt6_nt7" fromLane="0" toLane="0"/>
    <connection from="nt5_nt6" to="nt6_nt10" fromLane="1" toLane="0"/>

    <connection from="nt5_nt9" to="nt9_nt10" fromLane="0" toLane="0"/>
    <connection from="nt5_nt9" to="nt9_nt13" fromLane="0" toLane="0"/>
    <connection from="nt5_nt9" to="nt9_np14" fromLane="0" toLane="1"/>

    <connection from="nt6_nt10" to="nt10_nt11" fromLane="0" toLane="0"/>
    <connection from="nt6_nt10" to="nt10_nt14" fromLane="0" toLane="0"/>
    <connection from="nt6_nt10" to="nt10_nt9" fromLane="0" toLane="1"/>

    <connection from="nt6_nt2" to="nt2_nt1" fromLane="0" toLane="0"/>
    <connection from="nt6_nt2" to="nt2_np2" fromLane="0" toLane="0"/>
    <connection from="nt6_nt2" to="nt2_nt3" fromLane="0" toLane="1"/>

    <connection from="nt6_nt5" to="nt5_nt9" fromLane="0" toLane="0"/>
    <connection from="nt6_nt5" to="nt5_np15" fromLane="0" toLane="0"/>
    <connection from="nt6_nt5" to="nt5_nt1" fromLane="1" toLane="0"/>

    <connection from="nt6_nt7" to="nt7_nt3" fromLane="0" toLane="0"/>
    <connection from="nt6_nt7" to="nt7_nt8" fromLane="0" toLane="0"/>
    <connection from="nt6_nt7" to="nt7_nt11" fromLane="1" toLane="0"/>

    <connection from="nt7_nt11" to="nt11_nt12" fromLane="0" toLane="0"/>
    <connection from="nt7_nt11" to="nt11_nt15" fromLane="0" toLane="0"/>
    <connection from="nt7_nt11" to="nt11_nt10" fromLane="0" toLane="1"/>

    <connection from="nt7_nt3" to="nt3_nt2" fromLane="0" toLane="0"/>
    <connection from="nt7_nt3" to="nt3_np3" fromLane="0" toLane="0"/>
    <connection from="nt7_nt3" to="nt3_nt4" fromLane="0" toLane="1"/>

    <connection from="nt7_nt6" to="nt6_nt10" fromLane="0" toLane="0"/>
    <connection from="nt7_nt6" to="nt6_nt5" fromLane="0" toLane="0"/>
    <connection from="nt7_nt6" to="nt6_nt2" fromLane="1" toLane="0"/>

    <connection from="nt7_nt8" to="nt8_nt4" fromLane="0" toLane="0"/>
    <connection from="nt7_nt8" to="nt8_np6" fromLane="0" toLane="0"/>
    <connection from="nt7_nt8" to="nt8_nt12" fromLane="1" toLane="0"/>

    <connection from="nt8_np6" to="np6_nt8" fromLane="1" toLane="1"/>

    <connection from="nt8_nt12" to="nt12_np7" fromLane="0" toLane="0"/>
    <connection from="nt8_nt12" to="nt12_nt16" fromLane="0" toLane="0"/>
    <connection from="nt8_nt12" to="nt12_nt11" fromLane="0" toLane="1"/>

    <connection from="nt8_nt4" to="nt4_nt3" fromLane="0" toLane="0"/>
    <connection from="nt8_nt4" to="nt4_np4" fromLane="0" toLane="0"/>
    <connection from="nt8_nt4" to="nt4_np5" fromLane="0" toLane="1"/>

    <connection from="nt8_nt7" to="nt7_nt11" fromLane="0" toLane="0"/>
    <connection from="nt8_nt7" to="nt7_nt6" fromLane="0" toLane="0"/>
    <connection from="nt8_nt7" to="nt7_nt3" fromLane="1" toLane="0"/>

    <connection from="nt9_np14" to="np14_nt9" fromLane="1" toLane="1"/>

    <connection from="nt9_nt10" to="nt10_nt6" fromLane="0" toLane="0"/>
    <connection from="nt9_nt10" to="nt10_nt11" fromLane="0" toLane="0"/>
    <connection from="nt9_nt10" to="nt10_nt14" fromLane="1" toLane="0"/>

    <connection from="nt9_nt13" to="nt13_nt14" fromLane="0" toLane="0"/>
    <connection from="nt9_nt13" to="nt13_np12" fromLane="0" toLane="0"/>
    <connection from="nt9_nt13" to="nt13_np13" fromLane="0" toLane="1"/>

    <connection from="nt9_nt5" to="nt5_np15" fromLane="0" toLane="0"/>
    <connection from="nt9_nt5" to="nt5_nt1" fromLane="0" toLane="0"/>
    <connection from="nt9_nt5" to="nt5_nt6" fromLane="0" toLane="1"/>

</connections>
